<?xml version="1.0" encoding="UTF-8"?>

<!-- generated on 12.08.2019 13:22:11 by Eclipse SUMO netedit Version UNKNOWN
<configuration xmlns:xsi="http://www.w3.org/2001/XMLSchema-instance" xsi:noNamespaceSchemaLocation="http://sumo.dlr.de/xsd/netconvertConfiguration.xsd">

    <input>
        <sumo-net-file value="corridor.net.xml"/>
    </input>

    <output>
        <output-file value="corridor.net.xml"/>
    </output>

    <processing>
        <geometry.max-grade.fix value="false"/>
        <offset.disable-normalization value="true"/>
        <lefthand value="false"/>
    </processing>

    <junctions>
        <no-turnarounds value="true"/>
        <junctions.corner-detail value="0"/>
        <junctions.limit-turn-speed value="-1"/>
        <rectangular-lane-cut value="false"/>
    </junctions>

    <pedestrian>
        <walkingareas value="false"/>
    </pedestrian>

</configuration>
-->

<net version="1.3" xmlns:xsi="http://www.w3.org/2001/XMLSchema-instance" xsi:noNamespaceSchemaLocation="http://sumo.dlr.de/xsd/net_file.xsd">

    <location netOffset="0.00,0.00" convBoundary="-400.00,-160.00,400.00,160.00" origBoundary="0.00,0.00,2000.00,1004.95" projParameter="!"/>

    <edge id=":gneJ10_0" function="internal">
        <lane id=":gneJ10_0_0" index="0" speed="13.89" length="9.03" shape="-204.80,10.40 -205.15,7.95 -206.20,6.20 -207.95,5.15 -210.40,4.80"/>
    </edge>
    <edge id=":gneJ10_1" function="internal">
        <lane id=":gneJ10_1_0" index="0" speed="13.89" length="20.80" shape="-204.80,10.40 -204.80,-10.40"/>
        <lane id=":gneJ10_1_1" index="1" speed="13.89" length="20.80" shape="-201.60,10.40 -201.60,-10.40"/>
    </edge>
    <edge id=":gneJ10_3" function="internal">
        <lane id=":gneJ10_3_0" index="0" speed="13.89" length="6.96" shape="-201.60,10.40 -200.85,5.15 -200.00,3.73"/>
    </edge>
    <edge id=":gneJ10_16" function="internal">
        <lane id=":gneJ10_16_0" index="0" speed="13.89" length="12.40" shape="-200.00,3.73 -198.60,1.40 -194.85,-0.85 -189.60,-1.60"/>
    </edge>
    <edge id=":gneJ10_4" function="internal">
        <lane id=":gneJ10_4_0" index="0" speed="13.89" length="9.03" shape="-189.60,4.80 -192.05,5.15 -193.80,6.20 -194.85,7.95 -195.20,10.40"/>
    </edge>
    <edge id=":gneJ10_5" function="internal">
        <lane id=":gneJ10_5_0" index="0" speed="13.89" length="20.80" shape="-189.60,4.80 -210.40,4.80"/>
        <lane id=":gneJ10_5_1" index="1" speed="13.89" length="20.80" shape="-189.60,1.60 -210.40,1.60"/>
    </edge>
    <edge id=":gneJ10_7" function="internal">
        <lane id=":gneJ10_7_0" index="0" speed="13.89" length="6.96" shape="-189.60,1.60 -194.85,0.85 -196.27,0.00"/>
    </edge>
    <edge id=":gneJ10_17" function="internal">
        <lane id=":gneJ10_17_0" index="0" speed="13.89" length="12.40" shape="-196.27,0.00 -198.60,-1.40 -200.85,-5.15 -201.60,-10.40"/>
    </edge>
    <edge id=":gneJ10_8" function="internal">
        <lane id=":gneJ10_8_0" index="0" speed="13.89" length="9.03" shape="-195.20,-10.40 -194.85,-7.95 -193.80,-6.20 -192.05,-5.15 -189.60,-4.80"/>
    </edge>
    <edge id=":gneJ10_9" function="internal">
        <lane id=":gneJ10_9_0" index="0" speed="13.89" length="20.80" shape="-195.20,-10.40 -195.20,10.40"/>
        <lane id=":gneJ10_9_1" index="1" speed="13.89" length="20.80" shape="-198.40,-10.40 -198.40,10.40"/>
    </edge>
    <edge id=":gneJ10_11" function="internal">
        <lane id=":gneJ10_11_0" index="0" speed="13.89" length="6.96" shape="-198.40,-10.40 -199.15,-5.15 -200.00,-3.73"/>
    </edge>
    <edge id=":gneJ10_18" function="internal">
        <lane id=":gneJ10_18_0" index="0" speed="13.89" length="12.40" shape="-200.00,-3.73 -201.40,-1.40 -205.15,0.85 -210.40,1.60"/>
    </edge>
    <edge id=":gneJ10_12" function="internal">
        <lane id=":gneJ10_12_0" index="0" speed="13.89" length="9.03" shape="-210.40,-4.80 -207.95,-5.15 -206.20,-6.20 -205.15,-7.95 -204.80,-10.40"/>
    </edge>
    <edge id=":gneJ10_13" function="internal">
        <lane id=":gneJ10_13_0" index="0" speed="13.89" length="20.80" shape="-210.40,-4.80 -189.60,-4.80"/>
        <lane id=":gneJ10_13_1" index="1" speed="13.89" length="20.80" shape="-210.40,-1.60 -189.60,-1.60"/>
    </edge>
    <edge id=":gneJ10_15" function="internal">
        <lane id=":gneJ10_15_0" index="0" speed="13.89" length="6.96" shape="-210.40,-1.60 -205.15,-0.85 -203.73,-0.00"/>
    </edge>
    <edge id=":gneJ10_19" function="internal">
        <lane id=":gneJ10_19_0" index="0" speed="13.89" length="12.40" shape="-203.73,-0.00 -201.40,1.40 -199.15,5.15 -198.40,10.40"/>
    </edge>
    <edge id=":gneJ11_0" function="internal">
        <lane id=":gneJ11_0_0" index="0" speed="13.89" length="9.03" shape="-4.80,10.40 -5.15,7.95 -6.20,6.20 -7.95,5.15 -10.40,4.80"/>
    </edge>
    <edge id=":gneJ11_1" function="internal">
        <lane id=":gneJ11_1_0" index="0" speed="13.89" length="20.80" shape="-4.80,10.40 -4.80,-10.40"/>
        <lane id=":gneJ11_1_1" index="1" speed="13.89" length="20.80" shape="-1.60,10.40 -1.60,-10.40"/>
    </edge>
    <edge id=":gneJ11_3" function="internal">
        <lane id=":gneJ11_3_0" index="0" speed="13.89" length="6.96" shape="-1.60,10.40 -0.85,5.15 0.00,3.73"/>
    </edge>
    <edge id=":gneJ11_16" function="internal">
        <lane id=":gneJ11_16_0" index="0" speed="13.89" length="12.40" shape="0.00,3.73 1.40,1.40 5.15,-0.85 10.40,-1.60"/>
    </edge>
    <edge id=":gneJ11_4" function="internal">
        <lane id=":gneJ11_4_0" index="0" speed="13.89" length="9.03" shape="10.40,4.80 7.95,5.15 6.20,6.20 5.15,7.95 4.80,10.40"/>
    </edge>
    <edge id=":gneJ11_5" function="internal">
        <lane id=":gneJ11_5_0" index="0" speed="13.89" length="20.80" shape="10.40,4.80 -10.40,4.80"/>
        <lane id=":gneJ11_5_1" index="1" speed="13.89" length="20.80" shape="10.40,1.60 -10.40,1.60"/>
    </edge>
    <edge id=":gneJ11_7" function="internal">
        <lane id=":gneJ11_7_0" index="0" speed="13.89" length="6.96" shape="10.40,1.60 5.15,0.85 3.73,0.00"/>
    </edge>
    <edge id=":gneJ11_17" function="internal">
        <lane id=":gneJ11_17_0" index="0" speed="13.89" length="12.40" shape="3.73,0.00 1.40,-1.40 -0.85,-5.15 -1.60,-10.40"/>
    </edge>
    <edge id=":gneJ11_8" function="internal">
        <lane id=":gneJ11_8_0" index="0" speed="13.89" length="9.03" shape="4.80,-10.40 5.15,-7.95 6.20,-6.20 7.95,-5.15 10.40,-4.80"/>
    </edge>
    <edge id=":gneJ11_9" function="internal">
        <lane id=":gneJ11_9_0" index="0" speed="13.89" length="20.80" shape="4.80,-10.40 4.80,10.40"/>
        <lane id=":gneJ11_9_1" index="1" speed="13.89" length="20.80" shape="1.60,-10.40 1.60,10.40"/>
    </edge>
    <edge id=":gneJ11_11" function="internal">
        <lane id=":gneJ11_11_0" index="0" speed="13.89" length="6.96" shape="1.60,-10.40 0.85,-5.15 0.00,-3.73"/>
    </edge>
    <edge id=":gneJ11_18" function="internal">
        <lane id=":gneJ11_18_0" index="0" speed="13.89" length="12.40" shape="0.00,-3.73 -1.40,-1.40 -5.15,0.85 -10.40,1.60"/>
    </edge>
    <edge id=":gneJ11_12" function="internal">
        <lane id=":gneJ11_12_0" index="0" speed="13.89" length="9.03" shape="-10.40,-4.80 -7.95,-5.15 -6.20,-6.20 -5.15,-7.95 -4.80,-10.40"/>
    </edge>
    <edge id=":gneJ11_13" function="internal">
        <lane id=":gneJ11_13_0" index="0" speed="13.89" length="20.80" shape="-10.40,-4.80 10.40,-4.80"/>
        <lane id=":gneJ11_13_1" index="1" speed="13.89" length="20.80" shape="-10.40,-1.60 10.40,-1.60"/>
    </edge>
    <edge id=":gneJ11_15" function="internal">
        <lane id=":gneJ11_15_0" index="0" speed="13.89" length="6.96" shape="-10.40,-1.60 -5.15,-0.85 -3.73,-0.00"/>
    </edge>
    <edge id=":gneJ11_19" function="internal">
        <lane id=":gneJ11_19_0" index="0" speed="13.89" length="12.40" shape="-3.73,-0.00 -1.40,1.40 0.85,5.15 1.60,10.40"/>
    </edge>
    <edge id=":gneJ12_0" function="internal">
        <lane id=":gneJ12_0_0" index="0" speed="13.89" length="9.03" shape="195.20,10.40 194.85,7.95 193.80,6.20 192.05,5.15 189.60,4.80"/>
    </edge>
    <edge id=":gneJ12_1" function="internal">
        <lane id=":gneJ12_1_0" index="0" speed="13.89" length="20.80" shape="195.20,10.40 195.20,-10.40"/>
        <lane id=":gneJ12_1_1" index="1" speed="13.89" length="20.80" shape="198.40,10.40 198.40,-10.40"/>
    </edge>
    <edge id=":gneJ12_3" function="internal">
        <lane id=":gneJ12_3_0" index="0" speed="13.89" length="6.96" shape="198.40,10.40 199.15,5.15 200.00,3.73"/>
    </edge>
    <edge id=":gneJ12_16" function="internal">
        <lane id=":gneJ12_16_0" index="0" speed="13.89" length="12.40" shape="200.00,3.73 201.40,1.40 205.15,-0.85 210.40,-1.60"/>
    </edge>
    <edge id=":gneJ12_4" function="internal">
        <lane id=":gneJ12_4_0" index="0" speed="13.89" length="9.03" shape="210.40,4.80 207.95,5.15 206.20,6.20 205.15,7.95 204.80,10.40"/>
    </edge>
    <edge id=":gneJ12_5" function="internal">
        <lane id=":gneJ12_5_0" index="0" speed="13.89" length="20.80" shape="210.40,4.80 189.60,4.80"/>
        <lane id=":gneJ12_5_1" index="1" speed="13.89" length="20.80" shape="210.40,1.60 189.60,1.60"/>
    </edge>
    <edge id=":gneJ12_7" function="internal">
        <lane id=":gneJ12_7_0" index="0" speed="13.89" length="6.96" shape="210.40,1.60 205.15,0.85 203.73,0.00"/>
    </edge>
    <edge id=":gneJ12_17" function="internal">
        <lane id=":gneJ12_17_0" index="0" speed="13.89" length="12.40" shape="203.73,0.00 201.40,-1.40 199.15,-5.15 198.40,-10.40"/>
    </edge>
    <edge id=":gneJ12_8" function="internal">
        <lane id=":gneJ12_8_0" index="0" speed="13.89" length="9.03" shape="204.80,-10.40 205.15,-7.95 206.20,-6.20 207.95,-5.15 210.40,-4.80"/>
    </edge>
    <edge id=":gneJ12_9" function="internal">
        <lane id=":gneJ12_9_0" index="0" speed="13.89" length="20.80" shape="204.80,-10.40 204.80,10.40"/>
        <lane id=":gneJ12_9_1" index="1" speed="13.89" length="20.80" shape="201.60,-10.40 201.60,10.40"/>
    </edge>
    <edge id=":gneJ12_11" function="internal">
        <lane id=":gneJ12_11_0" index="0" speed="13.89" length="6.96" shape="201.60,-10.40 200.85,-5.15 200.00,-3.73"/>
    </edge>
    <edge id=":gneJ12_18" function="internal">
        <lane id=":gneJ12_18_0" index="0" speed="13.89" length="12.40" shape="200.00,-3.73 198.60,-1.40 194.85,0.85 189.60,1.60"/>
    </edge>
    <edge id=":gneJ12_12" function="internal">
        <lane id=":gneJ12_12_0" index="0" speed="13.89" length="9.03" shape="189.60,-4.80 192.05,-5.15 193.80,-6.20 194.85,-7.95 195.20,-10.40"/>
    </edge>
    <edge id=":gneJ12_13" function="internal">
        <lane id=":gneJ12_13_0" index="0" speed="13.89" length="20.80" shape="189.60,-4.80 210.40,-4.80"/>
        <lane id=":gneJ12_13_1" index="1" speed="13.89" length="20.80" shape="189.60,-1.60 210.40,-1.60"/>
    </edge>
    <edge id=":gneJ12_15" function="internal">
        <lane id=":gneJ12_15_0" index="0" speed="13.89" length="6.96" shape="189.60,-1.60 194.85,-0.85 196.27,-0.00"/>
    </edge>
    <edge id=":gneJ12_19" function="internal">
        <lane id=":gneJ12_19_0" index="0" speed="13.89" length="12.40" shape="196.27,-0.00 198.60,1.40 200.85,5.15 201.60,10.40"/>
    </edge>

    <edge id="gneE10" from="gneJ10" to="gneJ11" priority="1" length="200.00">
        <lane id="gneE10_0" index="0" speed="13.89" length="200.00" shape="-189.60,-4.80 -10.40,-4.80"/>
        <lane id="gneE10_1" index="1" speed="13.89" length="200.00" shape="-189.60,-1.60 -10.40,-1.60"/>
    </edge>
    <edge id="gneE11" from="gneJ11" to="gneJ12" priority="1" length="200.00">
        <lane id="gneE11_0" index="0" speed="13.89" length="200.00" shape="10.40,-4.80 189.60,-4.80"/>
        <lane id="gneE11_1" index="1" speed="13.89" length="200.00" shape="10.40,-1.60 189.60,-1.60"/>
    </edge>
    <edge id="gneE12" from="gneJ13" to="gneJ10" priority="1" length="200.00">
        <lane id="gneE12_0" index="0" speed="13.89" length="200.00" shape="-204.80,160.00 -204.80,10.40"/>
        <lane id="gneE12_1" index="1" speed="13.89" length="200.00" shape="-201.60,160.00 -201.60,10.40"/>
    </edge>
    <edge id="gneE13" from="gneJ10" to="gneJ14" priority="1" length="200.00">
        <lane id="gneE13_0" index="0" speed="13.89" length="200.00" shape="-204.80,-10.40 -204.80,-160.00"/>
        <lane id="gneE13_1" index="1" speed="13.89" length="200.00" shape="-201.60,-10.40 -201.60,-160.00"/>
    </edge>
    <edge id="gneE14" from="gneJ15" to="gneJ11" priority="1" length="200.00">
        <lane id="gneE14_0" index="0" speed="13.89" length="200.00" shape="4.80,-160.00 4.80,-10.40"/>
        <lane id="gneE14_1" index="1" speed="13.89" length="200.00" shape="1.60,-160.00 1.60,-10.40"/>
    </edge>
    <edge id="gneE15" from="gneJ11" to="gneJ16" priority="1" length="200.00">
        <lane id="gneE15_0" index="0" speed="13.89" length="200.00" shape="4.80,10.40 4.80,160.00"/>
        <lane id="gneE15_1" index="1" speed="13.89" length="200.00" shape="1.60,10.40 1.60,160.00"/>
    </edge>
    <edge id="gneE16" from="gneJ12" to="gneJ17" priority="1" length="200.00">
        <lane id="gneE16_0" index="0" speed="13.89" length="200.00" shape="204.80,10.40 204.80,160.00"/>
        <lane id="gneE16_1" index="1" speed="13.89" length="200.00" shape="201.60,10.40 201.60,160.00"/>
    </edge>
    <edge id="gneE17" from="gneJ12" to="gneJ18" priority="1" length="200.00">
        <lane id="gneE17_0" index="0" speed="13.89" length="200.00" shape="195.20,-10.40 195.20,-160.00"/>
        <lane id="gneE17_1" index="1" speed="13.89" length="200.00" shape="198.40,-10.40 198.40,-160.00"/>
    </edge>
    <edge id="gneE18" from="gneJ11" to="gneJ10" priority="1" spreadType="center" length="200.00" shape="0.02,3.20 -200.00,3.20">
        <lane id="gneE18_0" index="0" speed="13.89" length="200.00" shape="-10.40,4.80 -189.60,4.80"/>
        <lane id="gneE18_1" index="1" speed="13.89" length="200.00" shape="-10.40,1.60 -189.60,1.60"/>
    </edge>
    <edge id="gneE19" from="gneJ10" to="gneJ13" priority="1" length="200.00">
        <lane id="gneE19_0" index="0" speed="13.89" length="200.00" shape="-195.20,10.40 -195.20,160.00"/>
        <lane id="gneE19_1" index="1" speed="13.89" length="200.00" shape="-198.40,10.40 -198.40,160.00"/>
    </edge>
    <edge id="gneE20" from="gneJ14" to="gneJ10" priority="1" length="200.00">
        <lane id="gneE20_0" index="0" speed="13.89" length="200.00" shape="-195.20,-160.00 -195.20,-10.40"/>
        <lane id="gneE20_1" index="1" speed="13.89" length="200.00" shape="-198.40,-160.00 -198.40,-10.40"/>
    </edge>
    <edge id="gneE21" from="gneJ16" to="gneJ11" priority="1" length="200.00">
        <lane id="gneE21_0" index="0" speed="13.89" length="200.00" shape="-4.80,160.00 -4.80,10.40"/>
        <lane id="gneE21_1" index="1" speed="13.89" length="200.00" shape="-1.60,160.00 -1.60,10.40"/>
    </edge>
    <edge id="gneE22" from="gneJ11" to="gneJ15" priority="1" length="200.00">
        <lane id="gneE22_0" index="0" speed="13.89" length="200.00" shape="-4.80,-10.40 -4.80,-160.00"/>
        <lane id="gneE22_1" index="1" speed="13.89" length="200.00" shape="-1.60,-10.40 -1.60,-160.00"/>
    </edge>
    <edge id="gneE23" from="gneJ18" to="gneJ12" priority="1" length="200.00">
        <lane id="gneE23_0" index="0" speed="13.89" length="200.00" shape="204.80,-160.00 204.80,-10.40"/>
        <lane id="gneE23_1" index="1" speed="13.89" length="200.00" shape="201.60,-160.00 201.60,-10.40"/>
    </edge>
    <edge id="gneE24" from="gneJ17" to="gneJ12" priority="1" length="200.00">
        <lane id="gneE24_0" index="0" speed="13.89" length="200.00" shape="195.20,160.00 195.20,10.40"/>
        <lane id="gneE24_1" index="1" speed="13.89" length="200.00" shape="198.40,160.00 198.40,10.40"/>
    </edge>
    <edge id="gneE25" from="gneJ12" to="gneJ11" priority="1" length="200.00">
        <lane id="gneE25_0" index="0" speed="13.89" length="200.00" shape="189.60,4.80 10.40,4.80"/>
        <lane id="gneE25_1" index="1" speed="13.89" length="200.00" shape="189.60,1.60 10.40,1.60"/>
    </edge>
    <edge id="gneE26" from="gneJ12" to="gneJ19" priority="1" length="200.00">
        <lane id="gneE26_0" index="0" speed="13.89" length="200.00" shape="210.40,-4.80 400.00,-4.80"/>
        <lane id="gneE26_1" index="1" speed="13.89" length="200.00" shape="210.40,-1.60 400.00,-1.60"/>
    </edge>
    <edge id="gneE27" from="gneJ19" to="gneJ12" priority="1" length="200.00">
        <lane id="gneE27_0" index="0" speed="13.89" length="200.00" shape="400.00,4.80 210.40,4.80"/>
        <lane id="gneE27_1" index="1" speed="13.89" length="200.00" shape="400.00,1.60 210.40,1.60"/>
    </edge>
    <edge id="gneE28" from="gneJ20" to="gneJ10" priority="1" length="200.00">
        <lane id="gneE28_0" index="0" speed="13.89" length="200.00" shape="-400.00,-4.80 -210.40,-4.80"/>
        <lane id="gneE28_1" index="1" speed="13.89" length="200.00" shape="-400.00,-1.60 -210.40,-1.60"/>
    </edge>
    <edge id="gneE29" from="gneJ10" to="gneJ20" priority="1" length="200.00">
        <lane id="gneE29_0" index="0" speed="13.89" length="200.00" shape="-210.40,4.80 -400.00,4.80"/>
        <lane id="gneE29_1" index="1" speed="13.89" length="200.00" shape="-210.40,1.60 -400.00,1.60"/>
    </edge>

    <tlLogic id="gneJ10" type="static" programID="0" offset="0">
        <phase duration="42" state="GGGgrrrrGGGgrrrr"/>
        <phase duration="3"  state="yyyyrrrryyyyrrrr"/>
        <phase duration="42" state="rrrrGGGgrrrrGGGg"/>
        <phase duration="3"  state="rrrryyyyrrrryyyy"/>
    </tlLogic>
    <tlLogic id="gneJ11" type="static" programID="0" offset="0">
        <phase duration="42" state="GGGgrrrrGGGgrrrr"/>
        <phase duration="3"  state="yyyyrrrryyyyrrrr"/>
        <phase duration="42" state="rrrrGGGgrrrrGGGg"/>
        <phase duration="3"  state="rrrryyyyrrrryyyy"/>
    </tlLogic>
    <tlLogic id="gneJ12" type="static" programID="0" offset="0">
        <phase duration="42" state="GGGgrrrrGGGgrrrr"/>
        <phase duration="3"  state="yyyyrrrryyyyrrrr"/>
        <phase duration="42" state="rrrrGGGgrrrrGGGg"/>
        <phase duration="3"  state="rrrryyyyrrrryyyy"/>
    </tlLogic>

    <junction id="gneJ10" type="traffic_light" x="-200.00" y="0.00" incLanes="gneE12_0 gneE12_1 gneE18_0 gneE18_1 gneE20_0 gneE20_1 gneE28_0 gneE28_1" intLanes=":gneJ10_0_0 :gneJ10_1_0 :gneJ10_1_1 :gneJ10_16_0 :gneJ10_4_0 :gneJ10_5_0 :gneJ10_5_1 :gneJ10_17_0 :gneJ10_8_0 :gneJ10_9_0 :gneJ10_9_1 :gneJ10_18_0 :gneJ10_12_0 :gneJ10_13_0 :gneJ10_13_1 :gneJ10_19_0" shape="-206.40,10.40 -193.60,10.40 -189.60,6.40 -189.60,-6.40 -193.60,-10.40 -206.40,-10.40 -210.40,-6.40 -210.40,6.40">
        <request index="0"  response="0000000000000000" foes="0000000001100000" cont="0"/>
        <request index="1"  response="1000000010000000" foes="1111100011100000" cont="0"/>
        <request index="2"  response="1000000010000000" foes="1111100011100000" cont="0"/>
        <request index="3"  response="1000011010000000" foes="1110011011100000" cont="1"/>
        <request index="4"  response="0000011000000000" foes="0000011000000000" cont="0"/>
        <request index="5"  response="0000111000001111" foes="1000111000001111" cont="0"/>
        <request index="6"  response="0000111000001111" foes="1000111000001111" cont="0"/>
        <request index="7"  response="0110111000001110" foes="0110111000001110" cont="1"/>
        <request index="8"  response="0000000000000000" foes="0110000000000000" cont="0"/>
        <request index="9"  response="1000000010000000" foes="1110000011111000" cont="0"/>
        <request index="10" response="1000000010000000" foes="1110000011111000" cont="0"/>
        <request index="11" response="1000000010000110" foes="1110000011100110" cont="1"/>
        <request index="12" response="0000000000000110" foes="0000000000000110" cont="0"/>
        <request index="13" response="0000111100001110" foes="0000111110001110" cont="0"/>
        <request index="14" response="0000111100001110" foes="0000111110001110" cont="0"/>
        <request index="15" response="0000111001101110" foes="0000111001101110" cont="1"/>
    </junction>
    <junction id="gneJ11" type="traffic_light" x="0.00" y="0.00" incLanes="gneE21_0 gneE21_1 gneE25_0 gneE25_1 gneE14_0 gneE14_1 gneE10_0 gneE10_1" intLanes=":gneJ11_0_0 :gneJ11_1_0 :gneJ11_1_1 :gneJ11_16_0 :gneJ11_4_0 :gneJ11_5_0 :gneJ11_5_1 :gneJ11_17_0 :gneJ11_8_0 :gneJ11_9_0 :gneJ11_9_1 :gneJ11_18_0 :gneJ11_12_0 :gneJ11_13_0 :gneJ11_13_1 :gneJ11_19_0" shape="-6.40,10.40 6.40,10.40 10.40,6.40 10.40,-6.40 6.40,-10.40 -6.40,-10.40 -10.40,-6.40 -10.40,6.40">
        <request index="0"  response="0000000000000000" foes="0000000001100000" cont="0"/>
        <request index="1"  response="1000000010000000" foes="1111100011100000" cont="0"/>
        <request index="2"  response="1000000010000000" foes="1111100011100000" cont="0"/>
        <request index="3"  response="1000011010000000" foes="1110011011100000" cont="1"/>
        <request index="4"  response="0000011000000000" foes="0000011000000000" cont="0"/>
        <request index="5"  response="0000111000001111" foes="1000111000001111" cont="0"/>
        <request index="6"  response="0000111000001111" foes="1000111000001111" cont="0"/>
        <request index="7"  response="0110111000001110" foes="0110111000001110" cont="1"/>
        <request index="8"  response="0000000000000000" foes="0110000000000000" cont="0"/>
        <request index="9"  response="1000000010000000" foes="1110000011111000" cont="0"/>
        <request index="10" response="1000000010000000" foes="1110000011111000" cont="0"/>
        <request index="11" response="1000000010000110" foes="1110000011100110" cont="1"/>
        <request index="12" response="0000000000000110" foes="0000000000000110" cont="0"/>
        <request index="13" response="0000111100001110" foes="0000111110001110" cont="0"/>
        <request index="14" response="0000111100001110" foes="0000111110001110" cont="0"/>
        <request index="15" response="0000111001101110" foes="0000111001101110" cont="1"/>
    </junction>
    <junction id="gneJ12" type="traffic_light" x="200.00" y="0.00" incLanes="gneE24_0 gneE24_1 gneE27_0 gneE27_1 gneE23_0 gneE23_1 gneE11_0 gneE11_1" intLanes=":gneJ12_0_0 :gneJ12_1_0 :gneJ12_1_1 :gneJ12_16_0 :gneJ12_4_0 :gneJ12_5_0 :gneJ12_5_1 :gneJ12_17_0 :gneJ12_8_0 :gneJ12_9_0 :gneJ12_9_1 :gneJ12_18_0 :gneJ12_12_0 :gneJ12_13_0 :gneJ12_13_1 :gneJ12_19_0" shape="193.60,10.40 206.40,10.40 210.40,6.40 210.40,-6.40 206.40,-10.40 193.60,-10.40 189.60,-6.40 189.60,6.40">
        <request index="0"  response="0000000000000000" foes="0000000001100000" cont="0"/>
        <request index="1"  response="1000000010000000" foes="1111100011100000" cont="0"/>
        <request index="2"  response="1000000010000000" foes="1111100011100000" cont="0"/>
        <request index="3"  response="1000011010000000" foes="1110011011100000" cont="1"/>
        <request index="4"  response="0000011000000000" foes="0000011000000000" cont="0"/>
        <request index="5"  response="0000111000001111" foes="1000111000001111" cont="0"/>
        <request index="6"  response="0000111000001111" foes="1000111000001111" cont="0"/>
        <request index="7"  response="0110111000001110" foes="0110111000001110" cont="1"/>
        <request index="8"  response="0000000000000000" foes="0110000000000000" cont="0"/>
        <request index="9"  response="1000000010000000" foes="1110000011111000" cont="0"/>
        <request index="10" response="1000000010000000" foes="1110000011111000" cont="0"/>
        <request index="11" response="1000000010000110" foes="1110000011100110" cont="1"/>
        <request index="12" response="0000000000000110" foes="0000000000000110" cont="0"/>
        <request index="13" response="0000111100001110" foes="0000111110001110" cont="0"/>
        <request index="14" response="0000111100001110" foes="0000111110001110" cont="0"/>
        <request index="15" response="0000111001101110" foes="0000111001101110" cont="1"/>
    </junction>
    <junction id="gneJ13" type="dead_end" x="-200.00" y="160.00" incLanes="gneE19_0 gneE19_1" intLanes="" shape="-200.00,160.00 -193.60,160.00 -200.00,160.00"/>
    <junction id="gneJ14" type="dead_end" x="-200.00" y="-160.00" incLanes="gneE13_0 gneE13_1" intLanes="" shape="-200.00,-160.00 -206.40,-160.00 -200.00,-160.00"/>
    <junction id="gneJ15" type="dead_end" x="0.00" y="-160.00" incLanes="gneE22_0 gneE22_1" intLanes="" shape="0.00,-160.00 -6.40,-160.00 0.00,-160.00"/>
    <junction id="gneJ16" type="dead_end" x="0.00" y="160.00" incLanes="gneE15_0 gneE15_1" intLanes="" shape="0.00,160.00 6.40,160.00 0.00,160.00"/>
    <junction id="gneJ17" type="dead_end" x="200.00" y="160.00" incLanes="gneE16_0 gneE16_1" intLanes="" shape="200.00,160.00 206.40,160.00 200.00,160.00"/>
    <junction id="gneJ18" type="dead_end" x="200.00" y="-160.00" incLanes="gneE17_0 gneE17_1" intLanes="" shape="200.00,-160.00 193.60,-160.00 200.00,-160.00"/>
    <junction id="gneJ19" type="dead_end" x="400.00" y="0.00" incLanes="gneE26_0 gneE26_1" intLanes="" shape="400.00,0.00 400.00,-6.40 400.00,0.00"/>
    <junction id="gneJ20" type="dead_end" x="-400.00" y="0.00" incLanes="gneE29_0 gneE29_1" intLanes="" shape="-400.00,0.00 -400.00,6.40 -400.00,0.00"/>

    <junction id=":gneJ10_16_0" type="internal" x="-200.00" y="3.73" incLanes=":gneJ10_3_0 gneE20_0 gneE20_1" intLanes=":gneJ10_5_0 :gneJ10_5_1 :gneJ10_7_0 :gneJ10_8_0 :gneJ10_9_0 :gneJ10_9_1 :gneJ10_13_0 :gneJ10_13_1 :gneJ10_15_0"/>
    <junction id=":gneJ10_17_0" type="internal" x="-196.27" y="0.00" incLanes=":gneJ10_7_0 gneE28_0 gneE28_1" intLanes=":gneJ10_1_0 :gneJ10_1_1 :gneJ10_3_0 :gneJ10_9_0 :gneJ10_9_1 :gneJ10_11_0 :gneJ10_12_0 :gneJ10_13_0 :gneJ10_13_1"/>
    <junction id=":gneJ10_18_0" type="internal" x="-200.00" y="-3.73" incLanes=":gneJ10_11_0 gneE12_0 gneE12_1" intLanes=":gneJ10_0_0 :gneJ10_1_0 :gneJ10_1_1 :gneJ10_5_0 :gneJ10_5_1 :gneJ10_7_0 :gneJ10_13_0 :gneJ10_13_1 :gneJ10_15_0"/>
    <junction id=":gneJ10_19_0" type="internal" x="-203.73" y="-0.00" incLanes=":gneJ10_15_0 gneE18_0 gneE18_1" intLanes=":gneJ10_1_0 :gneJ10_1_1 :gneJ10_3_0 :gneJ10_4_0 :gneJ10_5_0 :gneJ10_5_1 :gneJ10_9_0 :gneJ10_9_1 :gneJ10_11_0"/>
    <junction id=":gneJ11_16_0" type="internal" x="0.00" y="3.73" incLanes=":gneJ11_3_0 gneE14_0 gneE14_1" intLanes=":gneJ11_5_0 :gneJ11_5_1 :gneJ11_7_0 :gneJ11_8_0 :gneJ11_9_0 :gneJ11_9_1 :gneJ11_13_0 :gneJ11_13_1 :gneJ11_15_0"/>
    <junction id=":gneJ11_17_0" type="internal" x="3.73" y="0.00" incLanes=":gneJ11_7_0 gneE10_0 gneE10_1" intLanes=":gneJ11_1_0 :gneJ11_1_1 :gneJ11_3_0 :gneJ11_9_0 :gneJ11_9_1 :gneJ11_11_0 :gneJ11_12_0 :gneJ11_13_0 :gneJ11_13_1"/>
    <junction id=":gneJ11_18_0" type="internal" x="0.00" y="-3.73" incLanes=":gneJ11_11_0 gneE21_0 gneE21_1" intLanes=":gneJ11_0_0 :gneJ11_1_0 :gneJ11_1_1 :gneJ11_5_0 :gneJ11_5_1 :gneJ11_7_0 :gneJ11_13_0 :gneJ11_13_1 :gneJ11_15_0"/>
    <junction id=":gneJ11_19_0" type="internal" x="-3.73" y="-0.00" incLanes=":gneJ11_15_0 gneE25_0 gneE25_1" intLanes=":gneJ11_1_0 :gneJ11_1_1 :gneJ11_3_0 :gneJ11_4_0 :gneJ11_5_0 :gneJ11_5_1 :gneJ11_9_0 :gneJ11_9_1 :gneJ11_11_0"/>
    <junction id=":gneJ12_16_0" type="internal" x="200.00" y="3.73" incLanes=":gneJ12_3_0 gneE23_0 gneE23_1" intLanes=":gneJ12_5_0 :gneJ12_5_1 :gneJ12_7_0 :gneJ12_8_0 :gneJ12_9_0 :gneJ12_9_1 :gneJ12_13_0 :gneJ12_13_1 :gneJ12_15_0"/>
    <junction id=":gneJ12_17_0" type="internal" x="203.73" y="0.00" incLanes=":gneJ12_7_0 gneE11_0 gneE11_1" intLanes=":gneJ12_1_0 :gneJ12_1_1 :gneJ12_3_0 :gneJ12_9_0 :gneJ12_9_1 :gneJ12_11_0 :gneJ12_12_0 :gneJ12_13_0 :gneJ12_13_1"/>
    <junction id=":gneJ12_18_0" type="internal" x="200.00" y="-3.73" incLanes=":gneJ12_11_0 gneE24_0 gneE24_1" intLanes=":gneJ12_0_0 :gneJ12_1_0 :gneJ12_1_1 :gneJ12_5_0 :gneJ12_5_1 :gneJ12_7_0 :gneJ12_13_0 :gneJ12_13_1 :gneJ12_15_0"/>
    <junction id=":gneJ12_19_0" type="internal" x="196.27" y="-0.00" incLanes=":gneJ12_15_0 gneE27_0 gneE27_1" intLanes=":gneJ12_1_0 :gneJ12_1_1 :gneJ12_3_0 :gneJ12_4_0 :gneJ12_5_0 :gneJ12_5_1 :gneJ12_9_0 :gneJ12_9_1 :gneJ12_11_0"/>

    <connection from="gneE10" to="gneE22" fromLane="0" toLane="0" via=":gneJ11_12_0" tl="gneJ11" linkIndex="12" dir="r" state="o"/>
    <connection from="gneE10" to="gneE11" fromLane="0" toLane="0" via=":gneJ11_13_0" tl="gneJ11" linkIndex="13" dir="s" state="o"/>
    <connection from="gneE10" to="gneE11" fromLane="1" toLane="1" via=":gneJ11_13_1" tl="gneJ11" linkIndex="14" dir="s" state="o"/>
    <connection from="gneE10" to="gneE15" fromLane="1" toLane="1" via=":gneJ11_15_0" tl="gneJ11" linkIndex="15" dir="l" state="o"/>
    <connection from="gneE11" to="gneE17" fromLane="0" toLane="0" via=":gneJ12_12_0" tl="gneJ12" linkIndex="12" dir="r" state="o"/>
    <connection from="gneE11" to="gneE26" fromLane="0" toLane="0" via=":gneJ12_13_0" tl="gneJ12" linkIndex="13" dir="s" state="o"/>
    <connection from="gneE11" to="gneE26" fromLane="1" toLane="1" via=":gneJ12_13_1" tl="gneJ12" linkIndex="14" dir="s" state="o"/>
    <connection from="gneE11" to="gneE16" fromLane="1" toLane="1" via=":gneJ12_15_0" tl="gneJ12" linkIndex="15" dir="l" state="o"/>
    <connection from="gneE12" to="gneE29" fromLane="0" toLane="0" via=":gneJ10_0_0" tl="gneJ10" linkIndex="0" dir="r" state="O"/>
    <connection from="gneE12" to="gneE13" fromLane="0" toLane="0" via=":gneJ10_1_0" tl="gneJ10" linkIndex="1" dir="s" state="O"/>
    <connection from="gneE12" to="gneE13" fromLane="1" toLane="1" via=":gneJ10_1_1" tl="gneJ10" linkIndex="2" dir="s" state="O"/>
    <connection from="gneE12" to="gneE10" fromLane="1" toLane="1" via=":gneJ10_3_0" tl="gneJ10" linkIndex="3" dir="l" state="o"/>
    <connection from="gneE14" to="gneE11" fromLane="0" toLane="0" via=":gneJ11_8_0" tl="gneJ11" linkIndex="8" dir="r" state="O"/>
    <connection from="gneE14" to="gneE15" fromLane="0" toLane="0" via=":gneJ11_9_0" tl="gneJ11" linkIndex="9" dir="s" state="O"/>