<?xml version="1.0" encoding="UTF-8"?>

<!-- generated on 20.11.2019 10:30:55 by Eclipse SUMO netedit Version 1.3.1
<configuration xmlns:xsi="http://www.w3.org/2001/XMLSchema-instance" xsi:noNamespaceSchemaLocation="http://sumo.dlr.de/xsd/netconvertConfiguration.xsd">

    <input>
        <sumo-net-file value="net.net.xml"/>
    </input>

    <output>
        <output-file value="net.net.xml"/>
        <output.street-names value="true"/>
    </output>

    <processing>
        <geometry.max-grade.fix value="false"/>
        <offset.disable-normalization value="true"/>
        <opposites.guess.fix-lengths value="true"/>
        <lefthand value="false"/>
    </processing>

    <junctions>
        <no-internal-links value="false"/>
        <no-turnarounds value="true"/>
        <junctions.corner-detail value="5"/>
        <junctions.limit-turn-speed value="5.5"/>
        <rectangular-lane-cut value="false"/>
    </junctions>

    <pedestrian>
        <walkingareas value="true"/>
    </pedestrian>

    <visualisation>
        <registry-viewport value="true"/>
    </visualisation>

</configuration>
-->

<net version="1.3" junctionCornerDetail="5" walkingareas="true" limitTurnSpeed="5.50" xmlns:xsi="http://www.w3.org/2001/XMLSchema-instance" xsi:noNamespaceSchemaLocation="http://sumo.dlr.de/xsd/net_file.xsd">

    <location netOffset="-599740.41,-5788471.23" convBoundary="1457.44,1287.71,4630.25,5651.17" origBoundary="10.461310,52.237259,10.541931,52.306984" projParameter="+proj=utm +zone=32 +ellps=WGS84 +datum=WGS84 +units=m +no_defs"/>

    <type id="cycleway.lane" allow="bicycle" bikeLaneWidth="1.00"/>
    <type id="cycleway.lane|highway.tertiary" priority="6" numLanes="1" speed="13.89" disallow="pedestrian bicycle tram rail_urban rail rail_electric ship" oneway="0" sidewalkWidth="3.00" bikeLaneWidth="1.00"/>
    <type id="cycleway.opposite_lane" allow="bicycle" bikeLaneWidth="1.00"/>
    <type id="cycleway.opposite_lane|highway.residential" priority="4" numLanes="1" speed="13.89" disallow="pedestrian bicycle tram rail_urban rail rail_electric ship" oneway="0" sidewalkWidth="2.00" bikeLaneWidth="1.00"/>
    <type id="cycleway.opposite_lane|highway.tertiary" priority="6" numLanes="1" speed="13.89" disallow="pedestrian bicycle tram rail_urban rail rail_electric ship" oneway="0" sidewalkWidth="3.00" bikeLaneWidth="1.00"/>
    <type id="cycleway.opposite_track" allow="bicycle" bikeLaneWidth="1.50"/>
    <type id="cycleway.opposite_track|highway.tertiary" priority="6" numLanes="1" speed="13.89" disallow="pedestrian bicycle tram rail_urban rail rail_electric ship" oneway="0" sidewalkWidth="3.00" bikeLaneWidth="1.50"/>
    <type id="cycleway.track" allow="bicycle" bikeLaneWidth="1.50"/>
    <type id="cycleway.track|highway.pedestrian" priority="1" numLanes="1" speed="13.89" allow="pedestrian bicycle" oneway="0" width="3.20" bikeLaneWidth="1.50"/>
    <type id="cycleway.track|highway.primary" priority="9" numLanes="2" speed="13.89" disallow="pedestrian bicycle tram rail_urban rail rail_electric ship" oneway="0" sidewalkWidth="3.00" bikeLaneWidth="1.50"/>
    <type id="cycleway.track|highway.residential" priority="4" numLanes="1" speed="13.89" disallow="pedestrian bicycle tram rail_urban rail rail_electric ship" oneway="0" sidewalkWidth="2.00" bikeLaneWidth="1.50"/>
    <type id="cycleway.track|highway.tertiary" priority="6" numLanes="1" speed="13.89" disallow="pedestrian bicycle tram rail_urban rail rail_electric ship" oneway="0" sidewalkWidth="3.00" bikeLaneWidth="1.50"/>
    <type id="cycleway.track|highway.unclassified" priority="5" numLanes="1" speed="13.89" disallow="pedestrian bicycle tram rail_urban rail rail_electric ship" oneway="0" sidewalkWidth="2.00" bikeLaneWidth="1.50"/>
    <type id="highway.bridleway" priority="1" numLanes="1" speed="2.78" allow="pedestrian" oneway="1" width="2.00"/>
    <type id="highway.bus_guideway" priority="1" numLanes="1" speed="13.89" allow="bus" oneway="1"/>
    <type id="highway.cycleway" priority="1" numLanes="1" speed="8.33" allow="bicycle" oneway="0" width="1.00"/>
    <type id="highway.footway" priority="1" numLanes="1" speed="2.78" allow="pedestrian" oneway="1" width="2.00"/>
    <type id="highway.ford" priority="1" numLanes="1" speed="2.78" allow="army" oneway="0"/>
    <type id="highway.living_street" priority="3" numLanes="1" speed="2.78" disallow="tram rail_urban rail rail_electric ship" oneway="0"/>
    <type id="highway.motorway" priority="13" numLanes="2" speed="27.78" allow="private emergency authority army vip passenger hov taxi bus coach delivery truck trailer motorcycle evehicle custom1 custom2" oneway="1"/>
    <type id="highway.motorway_link" priority="12" numLanes="1" speed="16.67" allow="private emergency authority army vip passenger hov taxi bus coach delivery truck trailer motorcycle evehicle custom1 custom2" oneway="1"/>
    <type id="highway.path" priority="1" numLanes="1" speed="2.78" allow="pedestrian bicycle" oneway="1" width="2.00"/>
    <type id="highway.pedestrian" priority="1" numLanes="1" speed="2.78" allow="pedestrian" oneway="1" width="2.00"/>
    <type id="highway.primary" priority="9" numLanes="2" speed="13.89" disallow="pedestrian bicycle tram rail_urban rail rail_electric ship" oneway="0" sidewalkWidth="3.00"/>
    <type id="highway.primary_link" priority="8" numLanes="1" speed="13.89" disallow="pedestrian bicycle tram rail_urban rail rail_electric ship" oneway="0" sidewalkWidth="3.00"/>
    <type id="highway.raceway" priority="14" numLanes="2" speed="83.33" allow="vip" oneway="0"/>
    <type id="highway.residential" priority="4" numLanes="1" speed="13.89" disallow="pedestrian tram rail_urban rail rail_electric ship" oneway="0" sidewalkWidth="2.00"/>
    <type id="highway.secondary" priority="7" numLanes="2" speed="13.89" disallow="pedestrian bicycle tram rail_urban rail rail_electric ship" oneway="0" sidewalkWidth="3.00"/>
    <type id="highway.secondary_link" priority="6" numLanes="1" speed="13.89" disallow="pedestrian bicycle tram rail_urban rail rail_electric ship" oneway="0" sidewalkWidth="3.00"/>
    <type id="highway.service" priority="2" numLanes="1" speed="5.56" allow="pedestrian delivery bicycle" oneway="0"/>
    <type id="highway.service|railway.tram" priority="15" numLanes="1" speed="13.89" allow="pedestrian delivery bicycle tram" oneway="0"/>
    <type id="highway.stairs" priority="1" numLanes="1" speed="1.39" allow="pedestrian" oneway="1" width="2.00"/>
    <type id="highway.step" priority="1" numLanes="1" speed="1.39" allow="pedestrian" oneway="1" width="2.00"/>
    <type id="highway.steps" priority="1" numLanes="1" speed="1.39" allow="pedestrian" oneway="1" width="2.00"/>
    <type id="highway.tertiary" priority="6" numLanes="1" speed="13.89" disallow="pedestrian bicycle tram rail_urban rail rail_electric ship" oneway="0" sidewalkWidth="3.00"/>
    <type id="highway.tertiary_link" priority="5" numLanes="1" speed="13.89" disallow="pedestrian bicycle tram rail_urban rail rail_electric ship" oneway="0" sidewalkWidth="2.00"/>
    <type id="highway.track" priority="1" numLanes="1" speed="5.56" disallow="tram rail_urban rail rail_electric ship" oneway="0"/>
    <type id="highway.trunk" priority="11" numLanes="2" speed="13.89" disallow="pedestrian bicycle tram rail_urban rail rail_electric ship" oneway="0"/>
    <type id="highway.trunk_link" priority="10" numLanes="1" speed="13.89" disallow="pedestrian bicycle tram rail_urban rail rail_electric ship" oneway="0"/>
    <type id="highway.unclassified" priority="5" numLanes="1" speed="13.89" disallow="pedestrian bicycle tram rail_urban rail rail_electric ship" oneway="0" sidewalkWidth="2.00"/>
    <type id="highway.unsurfaced" priority="1" numLanes="1" speed="8.33" disallow="tram rail_urban rail rail_electric ship" oneway="0"/>
    <type id="railway.light_rail" priority="15" numLanes="1" speed="27.78" allow="rail_urban" oneway="1"/>
    <type id="railway.preserved" priority="15" numLanes="1" speed="27.78" allow="rail" oneway="1"/>
    <type id="railway.rail" priority="15" numLanes="1" speed="83.33" allow="rail rail_electric" oneway="1"/>
    <type id="railway.subway" priority="15" numLanes="1" speed="27.78" allow="rail_urban" oneway="1"/>
    <type id="railway.tram" priority="15" numLanes="1" speed="13.89" allow="tram" oneway="1"/>

    <edge id=":10578640-AddedOffRampNode_0" function="internal">
        <lane id=":10578640-AddedOffRampNode_0_0" index="0" disallow="pedestrian bicycle tram rail_urban rail rail_electric rail_fast ship" speed="27.78" length="7.57" shape="1568.21,5371.11 1569.07,5368.95 1569.01,5367.16 1569.03,5365.43 1570.12,5363.44"/>
        <lane id=":10578640-AddedOffRampNode_0_1" index="1" disallow="pedestrian bicycle tram rail_urban rail rail_electric rail_fast ship" speed="27.78" length="7.57" shape="1568.21,5371.11 1569.38,5369.39 1570.22,5368.23 1571.14,5367.13 1572.51,5365.57"/>
    </edge>
    <edge id=":1169223700_0" function="internal">
        <lane id=":1169223700_0_0" index="0" disallow="all" speed="13.89" length="8.20" width="2.00" shape="3831.96,5081.12 3831.20,5078.83 3830.27,5077.39 3829.34,5075.96 3828.58,5073.67"/>
        <lane id=":1169223700_0_1" index="1" disallow="pedestrian bicycle tram rail_urban rail rail_electric rail_fast ship" speed="13.89" length="8.20" shape="3834.51,5080.58 3833.74,5078.29 3832.81,5076.85 3831.89,5075.42 3831.12,5073.13"/>
        <lane id=":1169223700_0_2" index="2" disallow="pedestrian bicycle tram rail_urban rail rail_electric rail_fast ship" speed="13.89" length="8.20" shape="3834.51,5080.58 3834.23,5078.19 3834.38,5076.52 3834.53,5074.85 3834.25,5072.46"/>
        <lane id=":1169223700_0_3" index="3" disallow="pedestrian bicycle tram rail_urban rail rail_electric rail_fast ship" speed="13.89" length="8.20" shape="3837.64,5079.92 3837.36,5077.53 3837.51,5075.86 3837.66,5074.18 3837.38,5071.79"/>
        <lane id=":1169223700_0_4" index="4" disallow="pedestrian bicycle tram rail_urban rail rail_electric rail_fast ship" speed="13.89" length="8.20" shape="3840.77,5079.25 3840.49,5076.87 3840.64,5075.19 3840.79,5073.52 3840.51,5071.13"/>
        <lane id=":1169223700_0_5" index="5" disallow="pedestrian bicycle tram rail_urban rail rail_electric rail_fast ship" speed="13.89" length="8.20" shape="3843.90,5078.59 3843.62,5076.20 3843.77,5074.53 3843.92,5072.85 3843.64,5070.46"/>
    </edge>
    <edge id=":1192540483_0" function="internal">
        <lane id=":1192540483_0_0" index="0" disallow="pedestrian bicycle tram rail_urban rail rail_electric rail_fast ship" speed="13.89" length="35.51" shape="3198.01,2636.57 3196.89,2628.35 3194.48,2619.29 3191.61,2610.30 3189.14,2602.28"/>
    </edge>
    <edge id=":1192540483_1" function="internal">
        <lane id=":1192540483_1_0" index="0" disallow="pedestrian bicycle tram rail_urban rail rail_electric rail_fast ship" speed="11.11" length="37.49" shape="3198.01,2636.57 3198.43,2627.93 3199.58,2617.91 3200.76,2607.89 3201.23,2599.25"/>
    </edge>
    <edge id=":1192540483_2" function="internal">
        <lane id=":1192540483_2_0" index="0" disallow="pedestrian bicycle tram rail_urban rail rail_electric rail_fast ship" speed="11.11" length="37.60" shape="3205.58,2599.18 3204.95,2607.82 3203.38,2617.83 3201.82,2627.85 3201.21,2636.49"/>
    </edge>
    <edge id=":1192540483_3" function="internal">
        <lane id=":1192540483_3_0" index="0" disallow="pedestrian bicycle tram rail_urban rail rail_electric rail_fast ship" speed="13.89" length="36.31" shape="3192.91,2601.23 3195.42,2609.37 3198.07,2618.69 3200.22,2628.11 3201.21,2636.49"/>
    </edge>
    <edge id=":1192540483_w0" function="walkingarea">
        <lane id=":1192540483_w0_0" index="0" allow="pedestrian" speed="1.00" length="34.80" width="2.00" shape="3187.60,2602.70 3185.67,2603.24 3194.41,2636.67 3196.41,2636.62 3195.93,2629.19 3194.96,2623.79 3193.59,2619.42 3191.86,2615.11 3189.84,2609.86"/>
    </edge>
    <edge id=":1192540483_w1" function="walkingarea">
        <lane id=":1192540483_w1_0" index="0" allow="pedestrian" speed="1.00" length="37.54" width="2.00" shape="3202.81,2636.45 3204.81,2636.40 3209.18,2599.11 3207.18,2599.15 3206.97,2607.12 3206.12,2612.99 3204.97,2617.80 3203.82,2622.60 3202.99,2628.47"/>
    </edge>
    <edge id=":1192540483_w2" function="walkingarea">
        <lane id=":1192540483_w2_0" index="0" allow="pedestrian" speed="1.00" length="3.44" width="2.00" shape="3199.63,2599.27 3197.63,2599.30 3196.38,2600.24 3194.47,2600.83 3196.11,2605.65 3197.46,2608.49 3198.49,2609.27 3199.19,2607.99 3199.57,2604.66"/>
    </edge>
    <edge id=":1204081642_0" function="internal">
        <lane id=":1204081642_0_0" index="0" disallow="pedestrian bicycle tram rail_urban rail rail_electric rail_fast ship" speed="16.67" length="16.95" shape="2132.43,3940.91 2132.08,3944.95 2131.97,3949.36 2132.05,3953.79 2132.27,3957.84"/>
    </edge>
    <edge id=":1204081642_1" function="internal">
        <lane id=":1204081642_1_0" index="0" disallow="pedestrian bicycle tram rail_urban rail rail_electric rail_fast ship" speed="16.67" length="17.28" shape="2127.97,3941.22 2129.65,3944.94 2130.92,3949.28 2131.80,3953.75 2132.27,3957.84"/>
    </edge>
    <edge id=":1223148603_w0" function="walkingarea">
        <lane id=":1223148603_w0_0" index="0" allow="pedestrian" speed="1.00" length="8.40" width="2.00" shape="2718.45,2543.32 2718.84,2541.36 2716.80,2551.56 2717.19,2549.60"/>
    </edge>
    <edge id=":1225529999_w0" function="walkingarea">
        <lane id=":1225529999_w0_0" index="0" allow="pedestrian" speed="1.00" length="8.40" width="2.00" shape="2451.74,2748.25 2452.42,2746.37 2448.88,2756.15 2449.56,2754.27"/>
    </edge>
    <edge id=":1230277350_0" function="internal">
        <lane id=":1230277350_0_0" index="0" allow="bicycle" speed="13.89" length="16.81" width="2.00" shape="2504.44,1937.69 2499.43,1936.54 2495.94,1935.94 2492.52,1935.13 2487.72,1933.36"/>
        <lane id=":1230277350_0_1" index="1" disallow="pedestrian bicycle tram rail_urban rail rail_electric rail_fast ship" speed="13.89" length="16.81" shape="2505.11,1935.17 2500.20,1934.05 2496.78,1933.47 2493.42,1932.69 2488.72,1930.96"/>
        <lane id=":1230277350_0_2" index="2" disallow="pedestrian bicycle tram rail_urban rail rail_electric rail_fast ship" speed="13.89" length="16.81" shape="2505.94,1932.08 2501.15,1931.00 2497.81,1930.44 2494.54,1929.68 2489.95,1928.00"/>
        <lane id=":1230277350_0_3" index="3" disallow="pedestrian bicycle tram rail_urban rail rail_electric rail_fast ship" speed="13.89" length="16.81" shape="2505.94,1932.08 2501.36,1930.54 2498.43,1928.96 2495.56,1927.18 2491.18,1925.05"/>
    </edge>
    <edge id=":1230277350_w0" function="walkingarea">
        <lane id=":1230277350_w0_0" index="0" allow="pedestrian" speed="1.00" length="17.55" width="2.00" shape="2487.33,1934.28 2486.56,1936.12 2503.67,1940.58 2504.19,1938.65 2500.57,1937.78 2497.86,1937.27 2495.62,1936.88 2493.40,1936.41 2490.78,1935.61"/>
    </edge>
    <edge id=":1290876745_0" function="internal">
        <lane id=":1290876745_0_0" index="0" disallow="pedestrian bicycle tram rail_urban rail rail_electric rail_fast ship" speed="22.22" length="7.60" shape="1975.93,5589.06 1978.04,5596.23"/>
        <lane id=":1290876745_0_1" index="1" disallow="pedestrian bicycle tram rail_urban rail rail_electric rail_fast ship" speed="22.22" length="7.60" shape="1972.79,5589.72 1974.97,5597.14"/>
    </edge>
    <edge id=":1342664084_0" function="internal">
        <lane id=":1342664084_0_0" index="0" disallow="pedestrian bicycle tram rail_urban rail rail_electric rail_fast ship" speed="27.78" length="7.28" shape="3592.25,4982.93 3590.22,4983.01 3588.87,4983.49 3587.51,4984.06 3585.48,4984.40"/>
        <lane id=":1342664084_0_1" index="1" disallow="pedestrian bicycle tram rail_urban rail rail_electric rail_fast ship" speed="27.78" length="7.28" shape="3592.25,4982.93 3590.17,4982.51 3588.79,4981.89 3587.41,4981.36 3585.32,4981.20"/>
        <lane id=":1342664084_0_2" index="2" disallow="pedestrian bicycle tram rail_urban rail rail_electric rail_fast ship" speed="27.78" length="7.28" shape="3592.53,4979.74 3590.32,4979.31 3588.85,4978.68 3587.38,4978.15 3585.17,4978.01"/>
    </edge>
    <edge id=":1360995289_w0" function="walkingarea">
        <lane id=":1360995289_w0_0" index="0" allow="pedestrian" speed="1.00" length="8.40" width="2.00" shape="1907.20,1628.74 1906.23,1626.99 1911.25,1636.09 1910.28,1634.34"/>
    </edge>
    <edge id=":1365939459_0" function="internal">
        <lane id=":1365939459_0_0" index="0" disallow="pedestrian bicycle tram rail_urban rail rail_electric rail_fast ship" speed="19.45" length="7.71" shape="2016.56,3655.32 2017.95,3657.13 2018.88,3658.40 2019.74,3659.70 2020.94,3661.65"/>
    </edge>
    <edge id=":1365939459_1" function="internal">
        <lane id=":1365939459_1_0" index="0" disallow="pedestrian bicycle tram rail_urban rail rail_electric rail_fast ship" speed="22.22" length="7.19" shape="2014.03,3657.28 2015.36,3659.01 2016.24,3660.22 2017.04,3661.48 2018.16,3663.36"/>
        <lane id=":1365939459_1_1" index="1" disallow="pedestrian bicycle tram rail_urban rail rail_electric rail_fast ship" speed="22.22" length="7.19" shape="2011.50,3659.24 2012.77,3660.89 2013.60,3662.05 2014.37,3663.25 2015.43,3665.04"/>
    </edge>
    <edge id=":1365939527_0" function="internal">
        <lane id=":1365939527_0_0" index="0" disallow="pedestrian bicycle tram rail_urban rail rail_electric rail_fast ship" speed="16.67" length="15.96" shape="2089.09,3771.80 2091.19,3774.61 2093.48,3777.22 2095.87,3780.41 2098.29,3784.98"/>
        <lane id=":1365939527_0_1" index="1" disallow="pedestrian bicycle tram rail_urban rail rail_electric rail_fast ship" speed="16.67" length="15.96" shape="2089.09,3771.80 2090.74,3774.83 2092.04,3777.91 2093.42,3781.54 2095.35,3786.26"/>
    </edge>
    <edge id=":1365939542_0" function="internal">
        <lane id=":1365939542_0_0" index="0" disallow="pedestrian bicycle tram rail_urban rail rail_electric rail_fast ship" speed="16.67" length="29.93" shape="2114.98,3823.50 2118.01,3830.36 2121.03,3837.21 2123.89,3844.12 2126.46,3851.16"/>
        <lane id=":1365939542_0_1" index="1" disallow="pedestrian bicycle tram rail_urban rail rail_electric rail_fast ship" speed="16.67" length="29.93" shape="2114.98,3823.50 2117.53,3830.52 2119.51,3837.72 2121.33,3844.98 2123.43,3852.17"/>
    </edge>
    <edge id=":1365939542_2" function="internal">
        <lane id=":1365939542_2_0" index="0" disallow="pedestrian bicycle tram rail_urban rail rail_electric rail_fast ship" speed="16.67" length="29.37" shape="2112.04,3824.78 2114.79,3831.65 2117.05,3838.58 2118.81,3845.65 2120.04,3852.94"/>
    </edge>
    <edge id=":1365939542_3" function="internal">
        <lane id=":1365939542_3_0" index="0" disallow="pedestrian bicycle tram rail_urban rail rail_electric rail_fast ship" speed="16.67" length="29.10" shape="2112.04,3824.78 2114.29,3831.72 2115.47,3838.79 2116.13,3845.99 2116.87,3853.35"/>
    </edge>
    <edge id=":1365939682_0" function="internal">
        <lane id=":1365939682_0_0" index="0" disallow="pedestrian bicycle tram rail_urban rail rail_electric rail_fast ship" speed="13.89" length="23.30" shape="1938.51,3885.04 1932.65,3880.93 1927.38,3877.43 1922.71,3874.89 1918.67,3873.66"/>
        <lane id=":1365939682_0_1" index="1" disallow="pedestrian bicycle tram rail_urban rail rail_electric rail_fast ship" speed="13.89" length="23.30" shape="1940.34,3882.42 1934.20,3878.72 1928.30,3876.12 1923.00,3874.48 1918.67,3873.66"/>
    </edge>
    <edge id=":1365939682_2" function="internal">
        <lane id=":1365939682_2_0" index="0" allow="bicycle" speed="13.89" length="24.26" width="2.00" shape="1919.37,3867.91 1943.23,3872.24"/>
        <lane id=":1365939682_2_1" index="1" disallow="pedestrian bicycle tram rail_urban rail rail_electric rail_fast ship" speed="13.89" length="24.26" shape="1919.06,3870.49 1942.77,3874.80"/>
        <lane id=":1365939682_2_2" index="2" disallow="pedestrian bicycle tram rail_urban rail rail_electric rail_fast ship" speed="13.89" length="24.26" shape="1919.06,3870.49 1926.08,3871.98 1930.67,3873.97 1935.24,3876.09 1942.21,3877.95"/>
    </edge>
    <edge id=":1365939682_w0" function="walkingarea">
        <lane id=":1365939682_w0_0" index="0" allow="pedestrian" speed="1.00" length="24.36" width="2.00" shape="1943.41,3871.26 1943.77,3869.29 1919.74,3864.93 1919.50,3866.91"/>
    </edge>
    <edge id=":1365939719_0" function="internal">
        <lane id=":1365939719_0_0" index="0" disallow="pedestrian bicycle tram rail_urban rail rail_electric rail_fast ship" speed="8.23" length="12.97" shape="2070.01,3923.76 2066.83,3920.54 2063.96,3918.59 2061.40,3917.91 2059.16,3918.49"/>
    </edge>
    <edge id=":1365939719_1" function="internal">
        <lane id=":1365939719_1_0" index="0" disallow="pedestrian bicycle tram rail_urban rail rail_electric rail_fast ship" speed="15.28" length="71.63" shape="2088.78,3919.25 2097.66,3908.58 2111.07,3900.07 2129.01,3893.73 2151.46,3889.56"/>
    </edge>
    <edge id=":1365939719_2" function="internal">
        <lane id=":1365939719_2_0" index="0" disallow="pedestrian bicycle tram rail_urban rail rail_electric rail_fast ship" speed="15.28" length="68.65" shape="2091.56,3920.83 2100.01,3910.78 2112.87,3902.75 2130.15,3896.73 2151.85,3892.74"/>
    </edge>
    <edge id=":1365939719_3" function="internal">
        <lane id=":1365939719_3_0" index="0" allow="pedestrian" speed="13.89" length="94.16" width="2.00" shape="2154.19,3911.45 2129.56,3913.22 2103.13,3914.47 2079.06,3916.96 2061.48,3922.46"/>
        <lane id=":1365939719_3_1" index="1" allow="bicycle" speed="13.89" length="94.16" width="2.00" shape="2153.94,3909.46 2129.19,3911.27 2102.50,3912.61 2078.17,3915.20 2060.47,3920.74"/>
    </edge>
    <edge id=":1365939719_5" function="internal">
        <lane id=":1365939719_5_0" index="0" disallow="pedestrian bicycle tram rail_urban rail rail_electric rail_fast ship" speed="11.82" length="16.70" shape="2153.62,3906.88 2149.94,3907.83 2146.60,3909.79 2143.58,3912.76 2140.89,3916.73"/>
    </edge>
    <edge id=":1365939719_6" function="internal">
        <lane id=":1365939719_6_0" index="0" disallow="pedestrian bicycle tram rail_urban rail rail_electric rail_fast ship" speed="13.89" length="96.24" shape="2153.22,3903.71 2128.38,3906.07 2101.49,3908.61 2076.94,3912.41 2059.16,3918.49"/>
        <lane id=":1365939719_6_1" index="1" disallow="pedestrian bicycle tram rail_urban rail rail_electric rail_fast ship" speed="13.89" length="96.24" shape="2152.83,3900.53 2127.79,3902.95 2100.48,3905.65 2075.52,3909.58 2057.54,3915.73"/>
    </edge>
    <edge id=":1365939719_8" function="internal">
        <lane id=":1365939719_8_0" index="0" disallow="pedestrian bicycle tram rail_urban rail rail_electric rail_fast ship" speed="15.28" length="45.40" shape="2152.43,3897.36 2128.61,3898.85 2109.03,3897.28 2107.22,3896.73"/>
    </edge>
    <edge id=":1365939719_21" function="internal">
        <lane id=":1365939719_21_0" index="0" disallow="pedestrian bicycle tram rail_urban rail rail_electric rail_fast ship" speed="15.28" length="27.65" shape="2107.22,3896.73 2093.70,3892.63 2082.60,3884.91"/>
    </edge>
    <edge id=":1365939719_9" function="internal">
        <lane id=":1365939719_9_0" index="0" allow="bus" speed="10.12" length="15.84" shape="2138.67,3877.95 2141.55,3881.96 2144.57,3884.70 2147.74,3886.18 2151.06,3886.39"/>
    </edge>
    <edge id=":1365939719_10" function="internal">
        <lane id=":1365939719_10_0" index="0" disallow="pedestrian bicycle tram rail_urban rail rail_electric rail_fast ship" speed="10.75" length="17.97" shape="2138.67,3877.95 2142.25,3883.28 2145.58,3887.00 2148.65,3889.09 2151.46,3889.56"/>
    </edge>
    <edge id=":1365939719_11" function="internal">
        <lane id=":1365939719_11_0" index="0" disallow="pedestrian bicycle tram rail_urban rail rail_electric rail_fast ship" speed="11.75" length="21.61" shape="2135.93,3879.61 2140.11,3885.70 2144.16,3889.92 2148.07,3892.27 2151.85,3892.74"/>
    </edge>
    <edge id=":1365939719_12" function="internal">
        <lane id=":1365939719_12_0" index="0" disallow="pedestrian bicycle tram rail_urban rail rail_electric rail_fast ship" speed="15.28" length="64.39" shape="2114.71,3884.78 2106.76,3892.49 2091.90,3901.28 2074.55,3910.25 2059.16,3918.49"/>
        <lane id=":1365939719_12_1" index="1" disallow="pedestrian bicycle tram rail_urban rail rail_electric rail_fast ship" speed="15.28" length="64.39" shape="2111.77,3883.50 2104.04,3890.98 2089.62,3899.26 2072.73,3907.72 2057.54,3915.73"/>
    </edge>
    <edge id=":1365939719_14" function="internal">
        <lane id=":1365939719_14_0" index="0" allow="pedestrian" speed="13.89" length="94.99" width="2.00" shape="2055.98,3885.16 2077.71,3886.48 2103.23,3885.91 2128.74,3884.12 2150.49,3881.82"/>
        <lane id=":1365939719_14_1" index="1" allow="bicycle" speed="13.89" length="94.99" width="2.00" shape="2055.72,3887.14 2077.53,3888.47 2103.22,3887.89 2128.91,3886.11 2150.74,3883.81"/>
    </edge>
    <edge id=":1365939719_16" function="internal">
        <lane id=":1365939719_16_0" index="0" disallow="pedestrian bicycle tram rail_urban rail rail_electric rail_fast ship" speed="8.35" length="11.94" shape="2055.37,3889.72 2058.53,3889.73 2061.20,3888.85 2063.38,3887.08 2065.08,3884.42"/>
    </edge>
    <edge id=":1365939719_17" function="internal">
        <lane id=":1365939719_17_0" index="0" allow="bus" speed="13.89" length="96.58" shape="2055.37,3889.72 2077.29,3891.04 2103.20,3890.47 2129.13,3888.69 2151.06,3886.39"/>
        <lane id=":1365939719_17_1" index="1" disallow="pedestrian bicycle tram rail_urban rail rail_electric rail_fast ship" speed="13.89" length="96.58" shape="2054.94,3892.89 2076.99,3894.21 2103.19,3893.64 2129.40,3891.86 2151.46,3889.56"/>
        <lane id=":1365939719_17_2" index="2" disallow="pedestrian bicycle tram rail_urban rail rail_electric rail_fast ship" speed="13.89" length="96.58" shape="2054.94,3892.89 2077.05,3894.71 2103.39,3895.23 2129.73,3894.54 2151.85,3892.74"/>
    </edge>
    <edge id=":1365939719_20" function="internal">
        <lane id=":1365939719_20_0" index="0" disallow="pedestrian bicycle tram rail_urban rail rail_electric rail_fast ship" speed="15.28" length="39.57" shape="2054.52,3896.06 2076.74,3900.11 2092.94,3905.21"/>
    </edge>
    <edge id=":1365939719_22" function="internal">
        <lane id=":1365939719_22_0" index="0" disallow="pedestrian bicycle tram rail_urban rail rail_electric rail_fast ship" speed="15.28" length="28.19" shape="2092.94,3905.21 2094.35,3905.66 2107.33,3912.70 2115.69,3921.23"/>
    </edge>
    <edge id=":1365939936_0" function="internal">
        <lane id=":1365939936_0_0" index="0" allow="bicycle" speed="13.89" length="12.30" width="2.00" shape="1922.54,3956.98 1910.21,3958.67"/>
        <lane id=":1365939936_0_1" index="1" disallow="pedestrian bicycle tram rail_urban rail rail_electric rail_fast ship" speed="13.89" length="12.30" shape="1921.84,3954.45 1909.79,3956.11"/>
    </edge>
    <edge id=":1365939936_2" function="internal">
        <lane id=":1365939936_2_0" index="0" disallow="pedestrian bicycle tram rail_urban rail rail_electric rail_fast ship" speed="13.89" length="12.25" shape="1909.27,3952.95 1912.09,3951.71 1913.94,3949.66 1916.00,3947.44 1919.42,3945.73"/>
        <lane id=":1365939936_2_1" index="1" disallow="pedestrian bicycle tram rail_urban rail rail_electric rail_fast ship" speed="13.89" length="12.25" shape="1909.27,3952.95 1912.27,3952.18 1914.50,3951.16 1916.86,3950.01 1920.28,3948.81"/>
    </edge>
    <edge id=":1365939936_w0" function="walkingarea">
        <lane id=":1365939936_w0_0" index="0" allow="pedestrian" speed="1.00" length="12.65" width="2.00" shape="1910.37,3959.66 1910.70,3961.63 1923.21,3959.91 1922.93,3957.93"/>
    </edge>
    <edge id=":1365939940_0" function="internal">
        <lane id=":1365939940_0_0" index="0" disallow="pedestrian bicycle tram rail_urban rail rail_electric rail_fast ship" speed="16.67" length="28.53" shape="2077.94,3964.78 2078.02,3956.80 2077.85,3948.63 2077.45,3941.41 2076.82,3936.30"/>
    </edge>
    <edge id=":1365939940_1" function="internal">
        <lane id=":1365939940_1_0" index="0" disallow="pedestrian bicycle tram rail_urban rail rail_electric rail_fast ship" speed="16.67" length="28.49" shape="2081.14,3964.86 2081.06,3957.56 2080.75,3950.50 2080.71,3943.46 2081.45,3936.24"/>
        <lane id=":1365939940_1_1" index="1" disallow="pedestrian bicycle tram rail_urban rail rail_electric rail_fast ship" speed="16.67" length="28.49" shape="2081.14,3964.86 2081.55,3957.65 2082.32,3950.78 2083.36,3943.93 2084.60,3936.80"/>
    </edge>
    <edge id=":1393800667_0" function="internal">
        <lane id=":1393800667_0_0" index="0" disallow="pedestrian bicycle tram rail_urban rail rail_electric rail_fast ship" speed="13.89" length="17.36" shape="2847.14,4720.54 2849.23,4715.87 2850.34,4712.53 2851.40,4709.17 2853.33,4704.42"/>
        <lane id=":1393800667_0_1" index="1" disallow="pedestrian bicycle tram rail_urban rail rail_electric rail_fast ship" speed="13.89" length="17.36" shape="2850.00,4721.97 2852.11,4717.27 2853.23,4713.91 2854.30,4710.52 2856.25,4705.74"/>
    </edge>
    <edge id=":1393800667_2" function="internal">
        <lane id=":1393800667_2_0" index="0" allow="bicycle" speed="13.89" length="17.64" width="2.00" shape="2841.99,4717.98 2845.89,4714.76 2847.81,4711.78 2849.07,4708.25 2850.97,4703.34"/>
        <lane id=":1393800667_2_1" index="1" disallow="pedestrian bicycle tram rail_urban rail rail_electric rail_fast ship" speed="13.89" length="17.64" shape="2844.65,4719.30 2848.48,4715.99 2850.30,4712.94 2851.47,4709.36 2853.33,4704.42"/>
    </edge>
    <edge id=":1393800667_w0" function="walkingarea">