<?xml version="1.0" encoding="UTF-8"?>

<!-- generated on 12/05/18 11:04:13 by Eclipse SUMO duarouter Version 1.0.1
<configuration xmlns:xsi="http://www.w3.org/2001/XMLSchema-instance" xsi:noNamespaceSchemaLocation="http://sumo.dlr.de/xsd/duarouterConfiguration.xsd">

    <input>
        <net-file value="sirene.net.xml"/>
        <route-files value="sirene_emergency_flowsDua.xml"/>
    </input>

    <output>
        <output-file value="sirene_emergency.rou.xml"/>
        <alternatives-output value="sirene_emergency.rou.alt.xml"/>
    </output>

    <processing>
        <randomize-flows value="true"/>
    </processing>

</configuration>
-->

<routes xmlns:xsi="http://www.w3.org/2001/XMLSchema-instance" xsi:noNamespaceSchemaLocation="http://sumo.dlr.de/xsd/routes_file.xsd">
    <vType id="Feuerwehrfahrzeug" speedFactor="1.50" vClass="emergency" guiShape="firebrigade"/>
    <vehicle id="Feuerwehr3.0" type="Feuerwehrfahrzeug" depart="55.65">
        <route edges="Feuerwehr_A 326114792#1 -276159044 -238863539#3 462507193 62089686#1 62089686#3 33364787 7975426#0 7975424#2 374169546#1 374169546#7 374169546#9 10522108#3 30426811 319192888 gneE12 gneE12.17 277671155 318894721 198090195 30339308 318894711 318894714 318894713 gneE32"/>
    </vehicle>
    <vType id="Krankenwagen" speedFactor="1.50" vClass="emergency" guiShape="emergency"/>
    <vehicle id="KlinikumHol5.0" type="Krankenwagen" depart="121.78">
        <route edges="KlinikumHol_A gneE36.157 7975418#1 9891028#0"/>
    </vehicle>
    <vehicle id="Johanniter3.0" type="Krankenwagen" depart="158.69">
        <route edges="Johanniter_A gneE7 529421168.93 325528579#0 24271247#1 32905474 27571113 310964899 288155218 4705755 332893806 29427544 gneE30"/>
    </vehicle>
    <vehicle id="KlinikumHol7.0" type="Krankenwagen" depart="169.47">
        <route edges="KlinikumHol_A gneE36.157 106531541#5 106531541#7 39458868#0 39458868#3 -167920423#7 -167920423#4 -167920423#2 59393481#0 59393481#2 314533296#0 385335099#0"/>
    </vehicle>
    <vehicle id="KlinikumHol5.1" type="Krankenwagen" depart="201.67">
        <route edges="KlinikumHol_A gneE36.157 7975418#1 9891028#0"/>
    </vehicle>
    <vehicle id="KlinikumHol7.1" type="Krankenwagen" depart="207.72">
        <route edges="KlinikumHol_A gneE36.157 106531541#5 106531541#7 39458868#0 39458868#3 -167920423#7 -167920423#4 -167920423#2 59393481#0 59393481#2 314533296#0 385335099#0"/>
    </vehicle>
    <vehicle id="Klinikum5.0" type="Krankenwagen" depart="345.65">
        <route edges="Klinikum_A 319192876#9 374169552#0 374169548#0 374169553#0 299910129#2 299910129#2.39 299910129#3 299910129#4 299910129#7 299910129#7.6 375862677#2 375862677#4 375862677#7 318774686 5139388#3 67628973#1 37390117#3 503119834#6 5134764#0"/>
    </vehicle>
    <vehicle id="Klinikum5.1" type="Krankenwagen" depart="352.32">
        <route edges="Klinikum_A 319192876#9 374169552#0 374169548#0 374169553#0 299910129#2 299910129#2.39 299910129#3 299910129#4 299910129#7 299910129#7.6 375862677#2 375862677#4 375862677#7 318774686 5139388#3 67628973#1 37390117#3 503119834#6 5134764#0"/>
    </vehicle>
    <vehicle id="Feuerwehr4.0" type="Feuerwehrfahrzeug" depart="381.92">
        <route edges="Feuerwehr_A 326114792#1 -276159044 -238863539#3 462507193 62089686#1 62089686#3 33364787 7975426#0 48861560#2 48861560#3 290601651#0 290601651#4 375722891#0 31722493#0 gneE10 7975439#2 31722496#1 31722496#1.197 31722496#6 59393478#0 59393478#2 106531540#2 106531540#2.51 231661245#1 231661245#2 231661245#3 626854754#1 626854754#2 59393481#0 59393481#2 314533296#0 385335099#0"/>
    </vehicle>
    <vehicle id="Feuerwehr1.0" type="Feuerwehrfahrzeug" depart="476.94">
        <route edges="Feuerwehr_A 326114792#1 -276159044 -238863539#3 462507193 62089686#1 62089686#3 33364787 7975426#0 7975424#2 374169546#1 374169546#7 374169546#9 10522108#3 30426790#0 -30426838#4 -30426838#3 30426842#1 61890329 61890739#2 -70545096#5 gneE25 gneE27"/>
    </vehicle>
    <vehicle id="KlinikumHol6.0" type="Krankenwagen" depart="587.90">
        <route edges="KlinikumHol_A gneE36.157 106531541#5 -8078962#6 231661245#2 231661245#3 8074215#2 8074215#3 8074215#5 8074215#6 -8074159#5 217362176#3"/>
    </vehicle>
    <vehicle id="Klinikum6.0" type="Krankenwagen" depart="596.97">
        <route edges="Klinikum_A 319192876#9 374169552#0 374169548#0 374169553#0 299910129#2 299910129#2.39 299910129#3 299910129#4 299910129#7 299910129#7.6 375862677#2 375862677#4 375862677#7 318774686 51352411 318774679#0 292107965#1 484594390#1 -384709617#1"/>
    </vehicle>
    <vehicle id="Klinikum0.0" type="Krankenwagen" depart="674.42">
        <route edges="Klinikum_A 374169546#7 374169546#9 10522108#3 30426790#0 -30426838#4 -30426838#3 -10517312#6"/>
    </vehicle>
    <vehicle id="Klinikum1.0" type="Krankenwagen" depart="869.60">
        <route edges="Klinikum_A 374169546#7 374169546#9 10522108#3 30426811 319192888 gneE12 gneE11.36 319192894#0 -538699600"/>
    </vehicle>
    <vehicle id="Johanniter0.0" type="Krankenwagen" depart="984.39">
        <route edges="Johanniter_A gneE7 529421168.93 325528579#0 gneE2 gneE3 gneE19 gneE24"/>
    </vehicle>
    <vehicle id="Klinikum8.0" type="Krankenwagen" depart="1118.06">
        <route edges="Klinikum_A 374169546#7 374169546#9 10522108#3 30426811 319192888 gneE12 gneE12.17 277671155 318894721 198090195 30339308 318894711 318894714 318894713 gneE32"/>
    </vehicle>
    <vehicle id="Johanniter1.0" type="Krankenwagen" depart="1132.18">
        <route edges="Johanniter_A gneE7 529421168.93 325528579#0 24271247#1 32905474 27571113 310964899 288155218 4743726 320858421 122164832#0 122164793 378048176#2 8074213#2"/>
    </vehicle>
    <vehicle id="Klinikum6.1" type="Krankenwagen" depart="1217.35">
        <route edges="Klinikum_A 319192876#9 374169552#0 374169548#0 374169553#0 299910129#2 299910129#2.39 299910129#3 299910129#4 299910129#7 299910129#7.6 375862677#2 375862677#4 375862677#7 318774686 51352411 318774679#0 292107965#1 484594390#1 -384709617#1"/>
    </vehicle>
    <vehicle id="Feuerwehr7.0" type="Feuerwehrfahrzeug" depart="1641.35">
        <route edges="Feuerwehr_A 326114792#1 -276159044 -238863539#3 462507193 62089686#1 62089686#3 33364787 7975426#0 48861560#2 48861560#3 290601651#0 290601651#4 375722891#0 31722493#0 gneE10 7975439#2 31722496#1 31722496#1.197 31722496#6 59393478#0 59393478#2 106531540#2 106531540#2.51 231661245#1 231661245#2 231661245#3 626854754#1 626854754#2 59393481#0 59393481#2 314533296#0 32755712#0 68327844#0 68327844#0.48 68327844#3"/>
    </vehicle>
    <vehicle id="Feuerwehr0.0" type="Feuerwehrfahrzeug" depart="1648.05">
        <route edges="Feuerwehr_A 326114792#1 -276159044 -276159045#1 -4314616#4 -4314616#3 318774686 318774678#1 318774678#3 318774678#6 4304445#0 6143906 24692541#2 348909761#0"/>
    </vehicle>
    <vehicle id="Klinikum1.1" type="Krankenwagen" depart="1650.72">
        <route edges="Klinikum_A 374169546#7 374169546#9 10522108#3 30426811 319192888 gneE12 gneE11.36 319192894#0 -538699600"/>
    </vehicle>
    <vehicle id="Klinikum8.1" type="Krankenwagen" depart="1752.65">
        <route edges="Klinikum_A 374169546#7 374169546#9 10522108#3 30426811 319192888 gneE12 gneE12.17 277671155 318894721 198090195 30339308 318894711 318894714 318894713 gneE32"/>
    </vehicle>
    <vehicle id="Klinikum2.0" type="Krankenwagen" depart="1848.48">
        <route edges="Klinikum_A 319192876#9 374169552#0 -25270811#10 8074412#0 8074412#1"/>
    </vehicle>
    <vehicle id="KlinikumHol4.0" type="Krankenwagen" depart="1972.95">
        <route edges="KlinikumHol_A -gneE36.376 218253719#3 24857829#2 gneE9 392792123#2 30128883 7975428#1 7975428#3 375722892#0 135155217#1 299910129#2 299910129#2.39 299910129#3 299910129#4 299910129#7 299910129#7.6 375862677#2 375862677#4 375862677#7 318774686 51352411 318774679#0 292107965#1 484594390#1 -384709617#1"/>
    </vehicle>
    <vehicle id="Feuerwehr7.1" type="Feuerwehrfahrzeug" depart="2015.92">
        <route edges="Feuerwehr_A 326114792#1 -276159044 -238863539#3 462507193 62089686#1 62089686#3 33364787 7975426#0 48861560#2 48861560#3 290601651#0 290601651#4 375722891#0 31722493#0 gneE10 7975439#2 31722496#1 31722496#1.197 31722496#6 59393478#0 59393478#2 106531540#2 106531540#2.51 231661245#1 231661245#2 231661245#3 626854754#1 626854754#2 59393481#0 59393481#2 314533296#0 32755712#0 68327844#0 68327844#0.48 68327844#3"/>
    </vehicle>
    <vehicle id="KlinikumHol2.0" type="Krankenwagen" depart="2038.37">
        <route edges="KlinikumHol_A -gneE36.376 218253719#3 24857829#2 gneE9 392792123#2 30128883 7975428#1 7975428#3 375722892#0 135155217#1 299910129#2 299910129#2.39 299910129#3 299910129#4 299910129#7 299910129#7.6 375862677#2 5083224#3 5083224#5 -525353018#1"/>
    </vehicle>
    <vehicle id="Feuerwehr8.0" type="Feuerwehrfahrzeug" depart="2039.96">
        <route edges="Feuerwehr_A 326114792#1 -276159044 -238863539#3 462507193 62089686#1 62089686#3 33364787 7975426#0 48861560#2 48861560#3 290601651#0 290601651#4 375722891#0 31722493#0 gneE10 7975439#2 31722496#1 31722496#1.197 31722496#6 59393478#0 59393478#2 -103495995#0 -106531542#1 gneE26"/>
    </vehicle>
    <vehicle id="KlinikumHol3.0" type="Krankenwagen" depart="2087.60">
        <route edges="KlinikumHol_A -gneE36.376 218253719#3 24857829#2 gneE9 392792123#2 30128883 7975428#1 7975428#3 375722892#0 135155217#1 299910129#2 299910129#2.39 299910129#3 299910129#4 299910129#7 299910129#7.6 375862677#2 375862677#4 375862677#7 318774686 5139388#3 67628973#1 37390117#3 503119834#6 387385476#1"/>
    </vehicle>
    <vehicle id="Johanniter6.0" type="Krankenwagen" depart="2092.86">
        <route edges="Johanniter_A gneE7 529421168.93 325528579#0 32755484#1 32755484#2 32755484#3 529421166#0 529421172#0 8074164#0 8074164#3 217362176#3"/>
    </vehicle>
    <vehicle id="Johanniter7.0" type="Krankenwagen" depart="2104.54">
        <route edges="Johanniter_A gneE7 529421168.93 325528579#0 32755484#1 32755484#2 32755484#3 529421166#0 27150096#0 314533295#0 32905529#0 68327840#2 167920423#2 9887597 9887599 9887598"/>
    </vehicle>
    <vehicle id="Johanniter0.1" type="Krankenwagen" depart="2116.75">
        <route edges="Johanniter_A gneE7 529421168.93 325528579#0 gneE2 gneE3 gneE19 gneE24"/>
    </vehicle>
    <vehicle id="Klinikum3.0" type="Krankenwagen" depart="2122.82">
        <route edges="Klinikum_A 319192876#9 374169552#0 374169548#0 374169553#0 299910129#2 299910129#2.39 299910129#3 299910129#4 299910129#7 375862676#2 7975381#1"/>
    </vehicle>
    <vehicle id="Johanniter5.0" type="Krankenwagen" depart="2138.70">
        <route edges="Johanniter_A gneE7 529421168.93 325528579#0 32755484#1 32755484#2 32755484#3 529421166#0 27150096#0 314533295#0 32755712#0 68327844#0 68327844#0.48 68327844#3"/>
    </vehicle>
    <vehicle id="KlinikumHol6.1" type="Krankenwagen" depart="2160.73">
        <route edges="KlinikumHol_A gneE36.157 106531541#5 -8078962#6 231661245#2 231661245#3 8074215#2 8074215#3 8074215#5 8074215#6 -8074159#5 217362176#3"/>
    </vehicle>
    <vehicle id="Johanniter2.0" type="Krankenwagen" depart="2222.61">
        <route edges="Johanniter_A gneE7 529421168.93 325528579#0 24271247#1 32905474 27571113 310964899 288155218 4743726 320858421 122164823#0 8074184#2 30424216#0 122164789#1 32020609#0 32020609#1"/>
    </vehicle>
    <vehicle id="KlinikumHol6.2" type="Krankenwagen" depart="2252.80">
        <route edges="KlinikumHol_A gneE36.157 106531541#5 -8078962#6 231661245#2 231661245#3 8074215#2 8074215#3 8074215#5 8074215#6 -8074159#5 217362176#3"/>
    </vehicle>
    <vehicle id="Johanniter2.1" type="Krankenwagen" depart="2279.74">
        <route edges="Johanniter_A gneE7 529421168.93 325528579#0 24271247#1 32905474 27571113 310964899 288155218 4743726 320858421 122164823#0 8074184#2 30424216#0 122164789#1 32020609#0 32020609#1"/>
    </vehicle>
    <vehicle id="Johanniter0.2" type="Krankenwagen" depart="2313.26">
        <route edges="Johanniter_A gneE7 529421168.93 325528579#0 gneE2 gneE3 gneE19 gneE24"/>
    </vehicle>
    <vehicle id="Johanniter4.0" type="Krankenwagen" depart="2359.25">
        <route edges="Johanniter_A gneE7 529421168.93 325528579#0 24271247#1 32905474 27571113 310964899 288155218 4705755 332893806 113861083 4725993 26563719 277671149 25036019 318894711 318894714 318894713 gneE32"/>
    </vehicle>
    <vehicle id="Klinikum5.2" type="Krankenwagen" depart="2436.32">
        <route edges="Klinikum_A 319192876#9 374169552#0 374169548#0 374169553#0 299910129#2 299910129#2.39 299910129#3 299910129#4 299910129#7 299910129#7.6 375862677#2 375862677#4 375862677#7 318774686 5139388#3 67628973#1 37390117#3 503119834#6 5134764#0"/>
    </vehicle>
    <vehicle id="Feuerwehr3.1" type="Feuerwehrfahrzeug" depart="2507.60">
        <route edges="Feuerwehr_A 326114792#1 -276159044 -238863539#3 462507193 62089686#1 62089686#3 33364787 7975426#0 7975424#2 374169546#1 374169546#7 374169546#9 10522108#3 30426811 319192888 gneE12 gneE12.17 277671155 318894721 198090195 30339308 318894711 318894714 318894713 gneE32"/>
    </vehicle>
    <vehicle id="KlinikumHol7.2" type="Krankenwagen" depart="2531.01">
        <route edges="KlinikumHol_A gneE36.157 106531541#5 106531541#7 39458868#0 39458868#3 -167920423#7 -167920423#4 -167920423#2 59393481#0 59393481#2 314533296#0 385335099#0"/>
    </vehicle>
    <vehicle id="KlinikumHol4.1" type="Krankenwagen" depart="2536.40">
        <route edges="KlinikumHol_A -gneE36.376 218253719#3 24857829#2 gneE9 392792123#2 30128883 7975428#1 7975428#3 375722892#0 135155217#1 299910129#2 299910129#2.39 299910129#3 299910129#4 299910129#7 299910129#7.6 375862677#2 375862677#4 375862677#7 318774686 51352411 318774679#0 292107965#1 484594390#1 -384709617#1"/>
    </vehicle>
    <vehicle id="Feuerwehr1.1" type="Feuerwehrfahrzeug" depart="2762.03">
        <route edges="Feuerwehr_A 326114792#1 -276159044 -238863539#3 462507193 62089686#1 62089686#3 33364787 7975426#0 7975424#2 374169546#1 374169546#7 374169546#9 10522108#3 30426790#0 -30426838#4 -30426838#3 30426842#1 61890329 61890739#2 -70545096#5 gneE25 gneE27"/>
    </vehicle>
    <vehicle id="KlinikumHol1.0" type="Krankenwagen" depart="2807.46">
        <route edges="KlinikumHol_A -gneE36.376 218253719#3 24857829#2 gneE9 392792123#2 30128883 7975428#1 7975428#3 375722892#0 135155217#1 83723985#2 5140346#2 5140348"/>
    </vehicle>
    <vehicle id="KlinikumHol0.0" type="Krankenwagen" depart="2834.57">
        <route edges="KlinikumHol_A -gneE36.376 218253719#3 24857829#2 gneE9"/>
    </vehicle>
    <vehicle id="Feuerwehr4.1" type="Feuerwehrfahrzeug" depart="2852.53">
        <route edges="Feuerwehr_A 326114792#1 -276159044 -238863539#3 462507193 62089686#1 62089686#3 33364787 7975426#0 48861560#2 48861560#3 290601651#0 290601651#4 375722891#0 31722493#0 gneE10 7975439#2 31722496#1 31722496#1.197 31722496#6 59393478#0 59393478#2 106531540#2 106531540#2.51 231661245#1 231661245#2 231661245#3 626854754#1 626854754#2 59393481#0 59393481#2 314533296#0 385335099#0"/>
    </vehicle>
    <vehicle id="Klinikum0.1" type="Krankenwagen" depart="3074.88">
        <route edges="Klinikum_A 374169546#7 374169546#9 10522108#3 30426790#0 -30426838#4 -30426838#3 -10517312#6"/>
    </vehicle>
    <vehicle id="Klinikum5.3" type="Krankenwagen" depart="3181.59">
        <route edges="Klinikum_A 319192876#9 374169552#0 374169548#0 374169553#0 299910129#2 299910129#2.39 299910129#3 299910129#4 299910129#7 299910129#7.6 375862677#2 375862677#4 375862677#7 318774686 5139388#3 67628973#1 37390117#3 503119834#6 5134764#0"/>
    </vehicle>
    <vehicle id="KlinikumHol7.3" type="Krankenwagen" depart="3225.98">
        <route edges="KlinikumHol_A gneE36.157 106531541#5 106531541#7 39458868#0 39458868#3 -167920423#7 -167920423#4 -167920423#2 59393481#0 59393481#2 314533296#0 385335099#0"/>
    </vehicle>
    <vehicle id="Johanniter5.1" type="Krankenwagen" depart="3380.65">
        <route edges="Johanniter_A gneE7 529421168.93 325528579#0 32755484#1 32755484#2 32755484#3 529421166#0 27150096#0 314533295#0 32755712#0 68327844#0 68327844#0.48 68327844#3"/>
    </vehicle>
    <vehicle id="KlinikumHol2.1" type="Krankenwagen" depart="3425.09">
        <route edges="KlinikumHol_A -gneE36.376 218253719#3 24857829#2 gneE9 392792123#2 30128883 7975428#1 7975428#3 375722892#0 135155217#1 299910129#2 299910129#2.39 299910129#3 299910129#4 299910129#7 299910129#7.6 375862677#2 5083224#3 5083224#5 -525353018#1"/>
    </vehicle>
    <vehicle id="Johanniter4.1" type="Krankenwagen" depart="3463.84">
        <route edges="Johanniter_A gneE7 529421168.93 325528579#0 24271247#1 32905474 27571113 310964899 288155218 4705755 332893806 113861083 4725993 26563719 277671149 25036019 318894711 318894714 318894713 gneE32"/>
    </vehicle>
    <vehicle id="KlinikumHol0.1" type="Krankenwagen" depart="3673.54">
        <route edges="KlinikumHol_A -gneE36.376 218253719#3 24857829#2 gneE9"/>
    </vehicle>
    <vehicle id="Feuerwehr4.2" type="Feuerwehrfahrzeug" depart="3892.93">
        <route edges="Feuerwehr_A 326114792#1 -276159044 -238863539#3 462507193 62089686#1 62089686#3 33364787 7975426#0 48861560#2 48861560#3 290601651#0 290601651#4 375722891#0 31722493#0 gneE10 7975439#2 31722496#1 31722496#1.197 31722496#6 59393478#0 59393478#2 106531540#2 106531540#2.51 231661245#1 231661245#2 231661245#3 626854754#1 626854754#2 59393481#0 59393481#2 314533296#0 385335099#0"/>
    </vehicle>
    <vehicle id="Johanniter0.3" type="Krankenwagen" depart="3967.48">
        <route edges="Johanniter_A gneE7 529421168.93 325528579#0 gneE2 gneE3 gneE19 gneE24"/>
    </vehicle>
    <vehicle id="KlinikumHol3.1" type="Krankenwagen" depart="4144.51">
        <route edges="KlinikumHol_A -gneE36.376 218253719#3 24857829#2 gneE9 392792123#2 30128883 7975428#1 7975428#3 375722892#0 135155217#1 299910129#2 299910129#2.39 299910129#3 299910129#4 299910129#7 299910129#7.6 375862677#2 375862677#4 375862677#7 318774686 5139388#3 67628973#1 37390117#3 503119834#6 387385476#1"/>
    </vehicle>
    <vehicle id="Klinikum7.0" type="Krankenwagen" depart="4187.11">
        <route edges="Klinikum_A 374169546#7 374169546#9 10522108#3 30426790#0 -30426838#4 -30426838#3 30426842#1 277671146 277671138 332880773 332880774 67491685 431412128 26229239#0 24692541#2 348909761#0"/>
    </vehicle>
    <vehicle id="Klinikum6.2" type="Krankenwagen" depart="4188.75">
        <route edges="Klinikum_A 319192876#9 374169552#0 374169548#0 374169553#0 299910129#2 299910129#2.39 299910129#3 299910129#4 299910129#7 299910129#7.6 375862677#2 375862677#4 375862677#7 318774686 51352411 318774679#0 292107965#1 484594390#1 -384709617#1"/>
    </vehicle>
    <vehicle id="KlinikumHol7.4" type="Krankenwagen" depart="4195.09">
        <route edges="KlinikumHol_A gneE36.157 106531541#5 106531541#7 39458868#0 39458868#3 -167920423#7 -167920423#4 -167920423#2 59393481#0 59393481#2 314533296#0 385335099#0"/>
    </vehicle>
    <vehicle id="Feuerwehr6.0" type="Feuerwehrfahrzeug" depart="4212.69">
        <route edges="Feuerwehr_A 326114792#1 -276159044 -238863539#3 462507193 62089686#1 62089686#3 33364787 7975426#0 48861560#2 48861560#3 290601651#0 290601651#4 375722891#0 31722493#0 gneE10 7975439#2 31722496#1 31722496#1.197 31722496#6 59393478#0 59393478#2 106531540#2 106531540#2.51 231661245#1 231661245#2 231661245#3 8074215#2 8074215#3 8074215#5 8074215#6"/>
    </vehicle>
    <vehicle id="KlinikumHol6.3" type="Krankenwagen" depart="4221.78">
        <route edges="KlinikumHol_A gneE36.157 106531541#5 -8078962#6 231661245#2 231661245#3 8074215#2 8074215#3 8074215#5 8074215#6 -8074159#5 217362176#3"/>
    </vehicle>
    <vehicle id="KlinikumHol2.2" type="Krankenwagen" depart="4302.82">
        <route edges="KlinikumHol_A -gneE36.376 218253719#3 24857829#2 gneE9 392792123#2 30128883 7975428#1 7975428#3 375722892#0 135155217#1 299910129#2 299910129#2.39 299910129#3 299910129#4 299910129#7 299910129#7.6 375862677#2 5083224#3 5083224#5 -525353018#1"/>
    </vehicle>
    <vehicle id="Klinikum2.1" type="Krankenwagen" depart="4357.33">
        <route edges="Klinikum_A 319192876#9 374169552#0 -25270811#10 8074412#0 8074412#1"/>
    </vehicle>
    <vehicle id="Johanniter7.1" type="Krankenwagen" depart="4382.43">
        <route edges="Johanniter_A gneE7 529421168.93 325528579#0 32755484#1 32755484#2 32755484#3 529421166#0 27150096#0 314533295#0 32905529#0 68327840#2 167920423#2 9887597 9887599 9887598"/>
    </vehicle>
    <vehicle id="KlinikumHol1.1" type="Krankenwagen" depart="4557.59">
        <route edges="KlinikumHol_A -gneE36.376 218253719#3 24857829#2 gneE9 392792123#2 30128883 7975428#1 7975428#3 375722892#0 135155217#1 83723985#2 5140346#2 5140348"/>
    </vehicle>
    <vehicle id="Feuerwehr2.0" type="Feuerwehrfahrzeug" depart="4595.10">
        <route edges="Feuerwehr_A 326114792#1 -276159044 -238863539#3 462507193 62089686#1 62089686#3 33364787 7975426#0 48861560#2 48861560#3 290601651#0 290601651#4 375722891#0 31722493#0 25624802#2 378048182 378048188#1 10522141#0 10522141#3 8074184#2 8074184#2.37 320858416 -291313154"/>
    </vehicle>
    <vehicle id="Johanniter7.2" type="Krankenwagen" depart="4642.55">
        <route edges="Johanniter_A gneE7 529421168.93 325528579#0 32755484#1 32755484#2 32755484#3 529421166#0 27150096#0 314533295#0 32905529#0 68327840#2 167920423#2 9887597 9887599 9887598"/>
    </vehicle>
    <vehicle id="Johanniter5.2" type="Krankenwagen" depart="4689.04">
        <route edges="Johanniter_A gneE7 529421168.93 325528579#0 32755484#1 32755484#2 32755484#3 529421166#0 27150096#0 314533295#0 32755712#0 68327844#0 68327844#0.48 68327844#3"/>
    </vehicle>
    <vehicle id="Klinikum7.1" type="Krankenwagen" depart="4736.60">
        <route edges="Klinikum_A 374169546#7 374169546#9 10522108#3 30426790#0 -30426838#4 -30426838#3 30426842#1 277671146 277671138 332880773 332880774 67491685 431412128 26229239#0 24692541#2 348909761#0"/>
    </vehicle>
    <vehicle id="Feuerwehr2.1" type="Feuerwehrfahrzeug" depart="4848.60">
        <route edges="Feuerwehr_A 326114792#1 -276159044 -238863539#3 462507193 62089686#1 62089686#3 33364787 7975426#0 48861560#2 48861560#3 290601651#0 290601651#4 375722891#0 31722493#0 25624802#2 378048182 378048188#1 10522141#0 10522141#3 8074184#2 8074184#2.37 320858416 -291313154"/>
    </vehicle>
    <vehicle id="Johanniter5.3" type="Krankenwagen" depart="4984.81">
        <route edges="Johanniter_A gneE7 529421168.93 325528579#0 32755484#1 32755484#2 32755484#3 529421166#0 27150096#0 314533295#0 32755712#0 68327844#0 68327844#0.48 68327844#3"/>
    </vehicle>
    <vehicle id="Feuerwehr6.1" type="Feuerwehrfahrzeug" depart="5014.18">
        <route edges="Feuerwehr_A 326114792#1 -276159044 -238863539#3 462507193 62089686#1 62089686#3 33364787 7975426#0 48861560#2 48861560#3 290601651#0 290601651#4 375722891#0 31722493#0 gneE10 7975439#2 31722496#1 31722496#1.197 31722496#6 59393478#0 59393478#2 106531540#2 106531540#2.51 231661245#1 231661245#2 231661245#3 8074215#2 8074215#3 8074215#5 8074215#6"/>
    </vehicle>
    <vehicle id="Johanniter4.2" type="Krankenwagen" depart="5027.64">
        <route edges="Johanniter_A gneE7 529421168.93 325528579#0 24271247#1 32905474 27571113 310964899 288155218 4705755 332893806 113861083 4725993 26563719 277671149 25036019 318894711 318894714 318894713 gneE32"/>
    </vehicle>
    <vehicle id="KlinikumHol5.2" type="Krankenwagen" depart="5086.20">
        <route edges="KlinikumHol_A gneE36.157 7975418#1 9891028#0"/>
    </vehicle>
    <vehicle id="Feuerwehr7.2" type="Feuerwehrfahrzeug" depart="5106.32">
        <route edges="Feuerwehr_A 326114792#1 -276159044 -238863539#3 462507193 62089686#1 62089686#3 33364787 7975426#0 48861560#2 48861560#3 290601651#0 290601651#4 375722891#0 31722493#0 gneE10 7975439#2 31722496#1 31722496#1.197 31722496#6 59393478#0 59393478#2 106531540#2 106531540#2.51 231661245#1 231661245#2 231661245#3 626854754#1 626854754#2 59393481#0 59393481#2 314533296#0 32755712#0 68327844#0 68327844#0.48 68327844#3"/>
    </vehicle>
    <vehicle id="KlinikumHol2.3" type="Krankenwagen" depart="5228.84">
        <route edges="KlinikumHol_A -gneE36.376 218253719#3 24857829#2 gneE9 392792123#2 30128883 7975428#1 7975428#3 375722892#0 135155217#1 299910129#2 299910129#2.39 299910129#3 299910129#4 299910129#7 299910129#7.6 375862677#2 5083224#3 5083224#5 -525353018#1"/>
    </vehicle>
    <vehicle id="Johanniter3.1" type="Krankenwagen" depart="5233.15">
        <route edges="Johanniter_A gneE7 529421168.93 325528579#0 24271247#1 32905474 27571113 310964899 288155218 4705755 332893806 29427544 gneE30"/>
    </vehicle>
    <vehicle id="Feuerwehr3.2" type="Feuerwehrfahrzeug" depart="5358.46">
        <route edges="Feuerwehr_A 326114792#1 -276159044 -238863539#3 462507193 62089686#1 62089686#3 33364787 7975426#0 7975424#2 374169546#1 374169546#7 374169546#9 10522108#3 30426811 319192888 gneE12 gneE12.17 277671155 318894721 198090195 30339308 318894711 318894714 318894713 gneE32"/>
    </vehicle>
    <vehicle id="Johanniter2.2" type="Krankenwagen" depart="5496.51">
        <route edges="Johanniter_A gneE7 529421168.93 325528579#0 24271247#1 32905474 27571113 310964899 288155218 4743726 320858421 122164823#0 8074184#2 30424216#0 122164789#1 32020609#0 32020609#1"/>
    </vehicle>
    <vehicle id="Klinikum0.2" type="Krankenwagen" depart="5566.98">
        <route edges="Klinikum_A 374169546#7 374169546#9 10522108#3 30426790#0 -30426838#4 -30426838#3 -10517312#6"/>
    </vehicle>
    <vehicle id="Klinikum8.2" type="Krankenwagen" depart="5640.85">
        <route edges="Klinikum_A 374169546#7 374169546#9 10522108#3 30426811 319192888 gneE12 gneE12.17 277671155 318894721 198090195 30339308 318894711 318894714 318894713 gneE32"/>
    </vehicle>
    <vehicle id="Johanniter5.4" type="Krankenwagen" depart="5642.72">
        <route edges="Johanniter_A gneE7 529421168.93 325528579#0 32755484#1 32755484#2 32755484#3 529421166#0 27150096#0 314533295#0 32755712#0 68327844#0 68327844#0.48 68327844#3"/>
    </vehicle>
    <vehicle id="Feuerwehr3.3" type="Feuerwehrfahrzeug" depart="5674.25">
        <route edges="Feuerwehr_A 326114792#1 -276159044 -238863539#3 462507193 62089686#1 62089686#3 33364787 7975426#0 7975424#2 374169546#1 374169546#7 374169546#9 10522108#3 30426811 319192888 gneE12 gneE12.17 277671155 318894721 198090195 30339308 318894711 318894714 318894713 gneE32"/>
    </vehicle>
    <vehicle id="Feuerwehr5.0" type="Feuerwehrfahrzeug" depart="5775.08">
        <route edges="Feuerwehr_A 326114792#1 -276159044 -238863539#3 462507193 62089686#1 62089686#3 33364787 7975426#0 48861560#2 48861560#3 290601651#0 290601651#4 375722891#0 31722493#0 25624802#2 378048182 378048188#1 10522141#0 10522141#3 83094952#1 83094952#2 288155217 288155216 332893804 4526775 273049372 325528584#0 23620034#0 23620034#0.48 529421167#0 529421167#0.294"/>
    </vehicle>
    <vehicle id="Klinikum7.2" type="Krankenwagen" depart="5777.48">
        <route edges="Klinikum_A 374169546#7 374169546#9 10522108#3 30426790#0 -30426838#4 -30426838#3 30426842#1 277671146 277671138 332880773 332880774 67491685 431412128 26229239#0 24692541#2 348909761#0"/>
    </vehicle>
    <vehicle id="Klinikum5.4" type="Krankenwagen" depart="5845.72">
        <route edges="Klinikum_A 319192876#9 374169552#0 374169548#0 374169553#0 299910129#2 299910129#2.39 299910129#3 299910129#4 299910129#7 299910129#7.6 375862677#2 375862677#4 375862677#7 318774686 5139388#3 67628973#1 37390117#3 503119834#6 5134764#0"/>
    </vehicle>
    <vehicle id="KlinikumHol4.2" type="Krankenwagen" depart="5863.86">
        <route edges="KlinikumHol_A -gneE36.376 218253719#3 24857829#2 gneE9 392792123#2 30128883 7975428#1 7975428#3 375722892#0 135155217#1 299910129#2 299910129#2.39 299910129#3 299910129#4 299910129#7 299910129#7.6 375862677#2 375862677#4 375862677#7 318774686 51352411 318774679#0 292107965#1 484594390#1 -384709617#1"/>
    </vehicle>
    <vehicle id="KlinikumHol4.3" type="Krankenwagen" depart="5940.87">
        <route edges="KlinikumHol_A -gneE36.376 218253719#3 24857829#2 gneE9 392792123#2 30128883 7975428#1 7975428#3 375722892#0 135155217#1 299910129#2 299910129#2.39 299910129#3 299910129#4 299910129#7 299910129#7.6 375862677#2 375862677#4 375862677#7 318774686 51352411 318774679#0 292107965#1 484594390#1 -384709617#1"/>
    </vehicle>
    <vehicle id="Feuerwehr2.2" type="Feuerwehrfahrzeug" depart="6042.01">
        <route edges="Feuerwehr_A 326114792#1 -276159044 -238863539#3 462507193 62089686#1 62089686#3 33364787 7975426#0 48861560#2 48861560#3 290601651#0 290601651#4 375722891#0 31722493#0 25624802#2 378048182 378048188#1 10522141#0 10522141#3 8074184#2 8074184#2.37 320858416 -291313154"/>
    </vehicle>
    <vehicle id="Klinikum7.3" type="Krankenwagen" depart="6137.93">
        <route edges="Klinikum_A 374169546#7 374169546#9 10522108#3 30426790#0 -30426838#4 -30426838#3 30426842#1 277671146 277671138 332880773 332880774 67491685 431412128 26229239#0 24692541#2 348909761#0"/>
    </vehicle>
    <vehicle id="KlinikumHol4.4" type="Krankenwagen" depart="6179.00">
        <route edges="KlinikumHol_A -gneE36.376 218253719#3 24857829#2 gneE9 392792123#2 30128883 7975428#1 7975428#3 375722892#0 135155217#1 299910129#2 299910129#2.39 299910129#3 299910129#4 299910129#7 299910129#7.6 375862677#2 375862677#4 375862677#7 318774686 51352411 318774679#0 292107965#1 484594390#1 -384709617#1"/>
    </vehicle>
    <vehicle id="Klinikum1.2" type="Krankenwagen" depart="6266.90">
        <route edges="Klinikum_A 374169546#7 374169546#9 10522108#3 30426811 319192888 gneE12 gneE11.36 319192894#0 -538699600"/>
    </vehicle>
    <vehicle id="Feuerwehr7.3" type="Feuerwehrfahrzeug" depart="6343.82">