<?xml version="1.0" encoding="UTF-8"?>

<!-- generated on 11/26/18 17:38:26 by Eclipse SUMO duarouter Version 1.0.1
<configuration xmlns:xsi="http://www.w3.org/2001/XMLSchema-instance" xsi:noNamespaceSchemaLocation="http://sumo.dlr.de/xsd/duarouterConfiguration.xsd">

    <input>
        <net-file value="sirene.net.xml"/>
        <route-files value="sirene.motorcycle.trips.xml"/>
    </input>

    <output>
        <output-file value="sirene.motorcycle.rou.xml"/>
        <alternatives-output value="sirene.motorcycle.rou.alt.xml"/>
    </output>

    <time>
        <begin value="0"/>
        <end value="10800.0"/>
    </time>

    <report>
        <no-warnings value="true"/>
        <ignore-errors value="true"/>
        <no-step-log value="true"/>
    </report>

</configuration>
-->

<routes xmlns:xsi="http://www.w3.org/2001/XMLSchema-instance" xsi:noNamespaceSchemaLocation="http://sumo.dlr.de/xsd/routes_file.xsd">
    <vType id="moto_motorcycle" vClass="motorcycle"/>
    <vehicle id="moto0" type="moto_motorcycle" depart="0.00" departLane="best">
        <route edges="-7975408#0 24857827#1 413718443#1 -7975390#9 -7975390#4 7975391#5 7975428#3 375722892#0 290601649#2 -367772443#2 10522157#1 10522159#0 290601651#4 375722891#0 31722493#0 gneE10 7975439#2 31722496#1 31722496#1.197 31722496#6 59393478#0 59393478#2 106531540#2 106531540#2.51 8074199#2 -8105196 -8074215#3 -8074215#2"/>
    </vehicle>
    <vehicle id="moto1" type="moto_motorcycle" depart="40.00" departLane="best">
        <route edges="387385477#1 387385477#2 387385471#2 42137289#1 306488581 306488582 6144590#1 37389514#0 37389514#3 462507193"/>
    </vehicle>
    <vehicle id="moto2" type="moto_motorcycle" depart="80.00" departLane="best">
        <route edges="7976291#0 299910129#4 299910129#7 299910129#7.6 238863539#2 276159044 -326114792#1"/>
    </vehicle>
    <vehicle id="moto3" type="moto_motorcycle" depart="120.00" departLane="best">
        <route edges="106531538#2 -8074226#1 -106531538#7 -106531538#3 231661249#1 231661249#2 231661249#3 231661249#3.63 8074188#3 8074188#5 -10526071#1"/>
    </vehicle>
    <vehicle id="moto4" type="moto_motorcycle" depart="160.00" departLane="best">
        <route edges="-5134912#3 4314516#5 62089686#3 33364787 7975426#0 48861560#2 48861560#3 290601651#0 290601651#4 375722891#0 31722493#0 gneE10 4365024#2 624411668#2 48894048 30128883"/>
    </vehicle>
    <vehicle id="moto6" type="moto_motorcycle" depart="240.00" departLane="best">
        <route edges="-5134912#3 4314516#5 299910129#4 299910129#7 299910129#7.6 375862677#2 375862677#4 375862677#7 318774686 318774678#1 318774678#3 318774678#6 336013553#2"/>
    </vehicle>
    <vehicle id="moto8" type="moto_motorcycle" depart="320.00" departLane="best">
        <route edges="-8105196 8074215#5 8074215#6 -8074159#5 -217362176#1 -8074164#1 -529421172#3"/>
    </vehicle>
    <vehicle id="moto9" type="moto_motorcycle" depart="360.00" departLane="best">
        <route edges="525353018#1 -5083224#6 -5083224#3 37389514#3 462507193 62089686#1 -7976291#1 -483465545#3 -483465545#0 5140348"/>
    </vehicle>
    <vehicle id="moto10" type="moto_motorcycle" depart="400.00" departLane="best">
        <route edges="10517312#5 30426842#1 61890329 4729391#1 313531560 140328557 332880808 4729381 26563633#2-AddedOnRampEdge 26563633#2 332893805 332893805-AddedOffRampEdge 140328552 122164804#0 8074184#2 30424216#0 122164799#0 8074181#3 104365620#1 23178214#4 332893806 113861083 4725993 317264673 277671132 277671132-AddedOffRampEdge 4789476 277665450 190823580 318894718 gneE13 319192893#0.50"/>
    </vehicle>
    <vehicle id="moto11" type="moto_motorcycle" depart="440.00" departLane="best">
        <route edges="38075402#0 38075402#2 103495995#0 106531540#2 106531540#2.51 231661245#1 231661245#2 231661245#3 8078963#2 355309951#0 39458868#0 39458868#3 -167920423#7 -167920423#4"/>
    </vehicle>
    <vehicle id="moto12" type="moto_motorcycle" depart="480.00" departLane="best">
        <route edges="-217362176#1 -8074164#1 -529421172#3 27150096#0 314533295#0 32905529#0 68327840#2 167920423#2 167920423#4 167920423#6 -39458868#3 -9887589#4"/>
    </vehicle>
    <vehicle id="moto13" type="moto_motorcycle" depart="520.00" departLane="best">
        <route edges="-22559297#1 -32020609#0 8074181#2 8074181#3 122164793 378048176#2 263432785#7 263432785#7.8 378048179#1 7975437#0 4365024#2 624411668#2 31722494#3 25624802#2 378048182 378048188#1 10522141#0 10522141#3"/>
    </vehicle>
    <vehicle id="moto14" type="moto_motorcycle" depart="560.00" departLane="best">
        <route edges="318774679#0 292107965#1 484594390#1 207177331#0"/>
    </vehicle>
    <vehicle id="moto15" type="moto_motorcycle" depart="600.00" departLane="best">
        <route edges="319192893#0 319192893#0.50 277671152 30426842#1 277671146 277671138 332880773 332880774 67491685 431412128 26229179#0 47007890 121709566#3 507114919#0 507114924#0 507113454 318774677#0 6144590#1 37389514#0 37389514#3 462507193 62089686#1 62089686#3 33364787 7975426#0 48861560#2 48861560#3 290601651#0 290601651#4 375722891#0"/>
    </vehicle>
    <vehicle id="moto16" type="moto_motorcycle" depart="640.00" departLane="best">
        <route edges="gneE7 529421168.93 325528579#0 32755484#1 32755484#2 32755484#3 529421166#0 27150096#0 314533295#0 32755712#0 68327844#0 68327844#0.48 10231574#2 385335098#1"/>
    </vehicle>
    <vehicle id="moto17" type="moto_motorcycle" depart="680.00" departLane="best">
        <route edges="-70395918#2 8074161#0 -8074173#7 8074164#3 8074159#1 -8074215#6 -8074204#0 8074199#4 -106531538#8 -106531538#7 -106531538#3"/>
    </vehicle>
    <vehicle id="moto18" type="moto_motorcycle" depart="720.00" departLane="best">
        <route edges="-8074220#2 -8074188#3 -7975405#7 -7975405#4 10237438#0"/>
    </vehicle>
    <vehicle id="moto19" type="moto_motorcycle" depart="760.00" departLane="best">
        <route edges="291313154 10522180#0 122164799#0 8074181#3 122164793 378048176#2 263432785#7 263432785#7.8 378048179#1 7975437#0 7975439#2 31722496#1 31722496#1.197 8074188#3 8074220#0"/>
    </vehicle>
    <vehicle id="moto20" type="moto_motorcycle" depart="800.00" departLane="best">
        <route edges="gneE23 gneE20 273049374 310964897#0 32755484#1 32755484#2 32755484#3 529421166#0 529421172#0 8074164#0 8074164#3"/>
    </vehicle>
    <vehicle id="moto21" type="moto_motorcycle" depart="840.00" departLane="best">
        <route edges="-10522157#4 367772443#1 290601650#0 290601651#0 290601651#4 375722891#0 31722493#0 gneE10 4365024#2 624411668#2 48894048 30128883 7975428#1 7975428#3 375722892#0 135155217#1 83723985#2 5140346#2 483465630 -375862675#2 5140764#2 5140764#4 -5140765#2 5134912#1"/>
    </vehicle>
    <vehicle id="moto22" type="moto_motorcycle" depart="880.00" departLane="best">
        <route edges="37389514#3 238863539#2 -276159045#1 -4314616#4 -4314616#3 318774686 318774678#1 318774678#3"/>
    </vehicle>
    <vehicle id="moto23" type="moto_motorcycle" depart="920.00" departLane="best">
        <route edges="7975391#5 7975428#3 375722892#0 290601649#2 -367772443#2 10522157#1 10522159#0 290601651#4 375722891#0 31722493#0 gneE10 7975439#2 31722496#1 31722496#1.197 -7975405#7 -7975405#4 10237438#0"/>
    </vehicle>
    <vehicle id="moto24" type="moto_motorcycle" depart="960.00" departLane="best">
        <route edges="218253719#3 24857829#2 gneE9 392792123#2 30128883 7975428#1 7975428#3 375722892#0 135155217#1 83723985#2 -7975388#0"/>
    </vehicle>
    <vehicle id="moto25" type="moto_motorcycle" depart="1000.00" departLane="best">
        <route edges="8074188#5 8074201#1 -218253720#1 -484593099#2 31722496#1 31722496#1.197 31722496#6 59393478#0 59393478#2 106531540#2 106531540#2.51 8074199#2"/>
    </vehicle>
    <vehicle id="moto26" type="moto_motorcycle" depart="1040.00" departLane="best">
        <route edges="501406798#0 501406797 501406799#0 7975425#0 48861560#2 48861560#3 290601651#0 290601651#4 375722891#0 31722493#0 gneE10 4365024#2 624411668#2 31722494#3"/>
    </vehicle>
    <vehicle id="moto27" type="moto_motorcycle" depart="1080.00" departLane="best">
        <route edges="-10237438#0 7975405#2 7975405#6 231661249#8 231661249#8.62 31722495#0 624411668#2 31722494#3 25624802#2 378048182 378048188#1 10522141#0 10522141#3 8074184#2 30424216#0 122164799#0 8074181#3 122164793"/>
    </vehicle>
    <vehicle id="moto28" type="moto_motorcycle" depart="1120.00" departLane="best">
        <route edges="7975394#1 7975392#1 -7975391#4 7975390#7 -413718443#6 24857829#2 gneE9 31722494#1 31722494#3 gneE10 4365024#2 4365024#3 4365024#7 24857827#0 7975408#0"/>
    </vehicle>
    <vehicle id="moto29" type="moto_motorcycle" depart="1160.00" departLane="best">
        <route edges="-7975407#2 -7975407#1 38075402#2 103495995#0 106531540#2 106531540#2.51 8074199#2 8074199#3 8074199#4"/>
    </vehicle>
    <vehicle id="moto30" type="moto_motorcycle" depart="1200.00" departLane="best">
        <route edges="106531538#4 106531538#8 -8074199#4"/>
    </vehicle>
    <vehicle id="moto31" type="moto_motorcycle" depart="1240.00" departLane="best">
        <route edges="-8074416#1 25270811#8 25270811#9 374169548#0 374169553#0 299910129#2 299910129#2.39 299910129#3 299910129#4 299910129#7 299910129#7.6 375862677#2 375862677#4 375862677#7 318774686 318774678#1 318774678#3 318774678#6 336013553#2"/>
    </vehicle>
    <vehicle id="moto32" type="moto_motorcycle" depart="1280.00" departLane="best">
        <route edges="-70395918#2 8074161#0 -8074173#7 8074164#3 8074159#1 -8074215#6 -8074215#5 10529294#0 -8074204#5"/>
    </vehicle>
    <vehicle id="moto33" type="moto_motorcycle" depart="1320.00" departLane="best">
        <route edges="-7820081#5 -5083224#3 37389514#3 462507193 62089686#1 62089686#3 33364787 7975426#0 7975424#2 374169546#1 374169546#7 374169546#9 10522108#3 30426790#0 -30426838#4 -30426838#3 30426842#1 277671146 277671138 332880773 332880774 67491685 431412128 26229179#0 47007890 121709566#3 507114919#0 507114924#0 507113454 318774677#0 6144590#1 4314616#3"/>
    </vehicle>
    <vehicle id="moto35" type="moto_motorcycle" depart="1400.00" departLane="best">
        <route edges="106698930#0 325528580#3 24271246#1 32905474 27571113 310964899 288155218 4743726 320858421 122164832#0 122164793 378048176#2 263432785#7 263432785#7.8 378048179#1 7975437#0 7975439#2 31722496#1 31722496#1.197 31722496#6 59393478#0 59393478#2 106531540#2 106531540#2.51 231661245#1 231661245#2 231661245#3 626854754#1 8074171#3"/>
    </vehicle>
    <vehicle id="moto36" type="moto_motorcycle" depart="1440.00" departLane="best">
        <route edges="gneE9 31722494#1 31722494#3 gneE10 4365024#2 4365024#3 4365024#7 24857827#0 7975408#0"/>
    </vehicle>
    <vehicle id="moto37" type="moto_motorcycle" depart="1480.00" departLane="best">
        <route edges="10522156#7 10522157#1 10522159#0 7975428#1 7975428#3 375722892#0 135155217#1 7975424#2 -25270811#10"/>
    </vehicle>
    <vehicle id="moto38" type="moto_motorcycle" depart="1520.00" departLane="best">
        <route edges="26229178#2 26229175 299911658 25115860 25115860-AddedOffRampEdge 277671135 277665454#0 277665454#2 277665454#4 gneE11 gneE13.27 319192876#0 319192876#3 319192876#4 319192876#9 374169552#0 374169548#0 374169553#0 83723985#2 5140346#2 483465630 -375862675#2 5140764#2"/>
    </vehicle>
    <vehicle id="moto39" type="moto_motorcycle" depart="1560.00" departLane="best">
        <route edges="-5083224#3 37389514#3 462507193 62089686#1 -4314516#7 5134912#1"/>
    </vehicle>
    <vehicle id="moto40" type="moto_motorcycle" depart="1600.00" departLane="best">
        <route edges="-217362175#1 -106531538#8 -106531538#7 -106531538#3 231661249#1 231661249#2 231661249#3 231661249#3.63 231661249#8 231661249#8.62 31722495#0 624411668#2 31722494#3 gneE10 7975439#2 484593099#1 484593099#3 -8074201#2"/>
    </vehicle>
    <vehicle id="moto41" type="moto_motorcycle" depart="1640.00" departLane="best">
        <route edges="-7975407#2 -7975407#1 38075402#2 103495995#0 106531540#2 106531540#2.51 231661245#1 231661245#2 231661245#3 8078963#2 355309951#0 39458868#0 39458868#3 -167920423#7 -167920423#4 9887597"/>
    </vehicle>
    <vehicle id="moto42" type="moto_motorcycle" depart="1680.00" departLane="best">
        <route edges="7975407#0 -7975409#1 106531542#1 103495995#0 106531540#2 106531540#2.51 8074199#2 8074199#3 8074199#4 8074199#8"/>
    </vehicle>
    <vehicle id="moto44" type="moto_motorcycle" depart="1760.00" departLane="best">
        <route edges="326114792#1 -276159044 -238863539#3 462507193 62089686#1 62089686#3 33364787 7975426#0 7975424#2 374169546#1 374169546#7 374169546#9 10522108#3 30426811 319192888 gneE12 gneE11.36"/>
    </vehicle>
    <vehicle id="moto45" type="moto_motorcycle" depart="1800.00" departLane="best">
        <route edges="-7975408#0 24857827#1 413718443#1 -7975390#9 -7975390#4 7975391#5 7975428#3 375722892#0 135155217#1 7975424#2 374169546#1 374169546#7"/>
    </vehicle>
    <vehicle id="moto46" type="moto_motorcycle" depart="1840.00" departLane="best">
        <route edges="624411668#2 48894048 30128883 7975428#1 7975428#3 375722892#0 290601649#2 -367772443#2"/>
    </vehicle>
    <vehicle id="moto47" type="moto_motorcycle" depart="1880.00" departLane="best">
        <route edges="106531538#8 -8074199#4 8074204#0 -8074215#5 -8074215#3 -8074215#2 626854755#0 626854755#2 559569229#0 559569229#0.143 231661249#1 231661249#2 231661249#3 231661249#3.63 231661249#8 231661249#8.62 31722495#0 624411668#2 31722494#3 25624802#2 378048182 378048188#1 10522141#0"/>
    </vehicle>
    <vehicle id="moto48" type="moto_motorcycle" depart="1920.00" departLane="best">
        <route edges="-217362175#1 -106531538#8 -106531538#7 -106531538#3 231661249#1 231661249#2 231661249#3 231661249#3.63 8074188#3 8074188#5 8074201#1 218253720#2 8074208"/>
    </vehicle>
    <vehicle id="moto49" type="moto_motorcycle" depart="1960.00" departLane="best">
        <route edges="577566285 292107968#0 306488581 306488582 318774678#1 318774678#3 318774678#6 336013553#2"/>
    </vehicle>
    <vehicle id="moto50" type="moto_motorcycle" depart="2000.00" departLane="best">
        <route edges="-30426827 -30426838#4 -30426838#3 30426842#1 277671146 277671138 332880773 332880774 67491685 431412128 26229179#0 47007890 121709566#3 507114919#0 507114924#0 507113454 318774677#0 6144590#1 37389514#0 37389514#3 238863539#2 -276159045#1 -4314616#4 -4314616#3"/>
    </vehicle>
    <vehicle id="moto51" type="moto_motorcycle" depart="2040.00" departLane="best">
        <route edges="-8074215#8 -8074215#6 -8074215#5 -8074215#3 -8074215#2 626854755#0 626854755#2 559569229#0 559569229#0.143 231661249#1 231661249#2 231661249#3 231661249#3.63 8074188#3 8074220#0"/>
    </vehicle>
    <vehicle id="moto52" type="moto_motorcycle" depart="2080.00" departLane="best">
        <route edges="-7975383 -375862675#2 33364787 7975426#0 48861560#2 48861560#3 290601651#0 290601651#4 375722891#0 31722493#0 gneE10 7975439#2 31722496#1 31722496#1.197 -7975405#7 -7975409#4 -7975407#1 -38075402#0"/>
    </vehicle>
    <vehicle id="moto53" type="moto_motorcycle" depart="2120.00" departLane="best">
        <route edges="501406798#0 501406797 501406799#0 7975425#0 48861560#2 48861560#3 290601651#0 290601651#4 375722891#0 31722493#0 25624802#2 378048182 378048188#1 8074213#2"/>
    </vehicle>
    <vehicle id="moto54" type="moto_motorcycle" depart="2160.00" departLane="best">
        <route edges="10522159#0 7975428#1 7975428#3 375722892#0 135155217#1 299910129#2 299910129#2.39 299910129#3 299910129#4 299910129#7 375862676#2"/>
    </vehicle>
    <vehicle id="moto55" type="moto_motorcycle" depart="2200.00" departLane="best">
        <route edges="5140764#4 5140740#0 24038685#4 24038685#7 7975426#0 48861560#2 48861560#3 290601651#0 290601651#4 375722891#0 31722493#0 gneE10 7975439#2 484593099#1 484593099#3 218253720#2 8074174#0"/>
    </vehicle>
    <vehicle id="moto56" type="moto_motorcycle" depart="2240.00" departLane="best">
        <route edges="-5134912#3 4314516#5 62089686#3 33364787 7975426#0 48861560#2 48861560#3 290601651#0 290601651#4 375722891#0 31722493#0 gneE10 4365024#2 624411668#2 48894048 30128883 7975393#2 7975392#1"/>
    </vehicle>
    <vehicle id="moto57" type="moto_motorcycle" depart="2280.00" departLane="best">
        <route edges="-106531538#3 231661249#1 231661249#2 231661249#3 231661249#3.63 -7975405#7 -7975409#4"/>
    </vehicle>
    <vehicle id="moto58" type="moto_motorcycle" depart="2320.00" departLane="best">
        <route edges="-8074412#2 -8074412#0 25270811#9 374169548#0 374169553#0 48861560#2 48861560#3 290601651#0 290601651#4 375722891#0 31722493#0 gneE10 7975439#2 484593099#1 484593099#3 218253720#2 8074174#0"/>
    </vehicle>
    <vehicle id="moto59" type="moto_motorcycle" depart="2360.00" departLane="best">
        <route edges="9887589#4 -39458868#1"/>
    </vehicle>
    <vehicle id="moto61" type="moto_motorcycle" depart="2440.00" departLane="best">
        <route edges="10517312#5 30426842#1 61890329 4729391#1 313531560 140328557 332880808"/>
    </vehicle>
    <vehicle id="moto62" type="moto_motorcycle" depart="2480.00" departLane="best">
        <route edges="-7975383 -375862675#2 299910129#3 299910129#4 299910129#7 299910129#7.6 375862677#2 375862677#4 375862677#7 318774686 5139388#3 67628973#1 37390117#3 503119834#6 5134764#0"/>
    </vehicle>
    <vehicle id="moto63" type="moto_motorcycle" depart="2520.00" departLane="best">
        <route edges="-10237438#0 7975405#2 7975405#6 31722496#6 59393478#0 59393478#2 106531540#2 106531540#2.51 231661245#1 231661245#2 231661245#3 8074215#2 8074215#3 8105196"/>
    </vehicle>
    <vehicle id="moto64" type="moto_motorcycle" depart="2560.00" departLane="best">
        <route edges="25624802#2 378048182 378048188#1 10522141#0 10522141#3 8074184#2 30424216#0 122164799#0 8074181#3 122164793 378048176#2 263432785#7 263432785#7.8 378048179#1 7975437#0 4365024#2 624411668#2 48894048 30128883 7975428#1 7975428#3 375722892#0 135155217#1 83723985#2 5140346#2 483465630 -375862675#2 5140764#2 5140764#4 -5140765#2 5134912#1"/>
    </vehicle>
    <vehicle id="moto65" type="moto_motorcycle" depart="2600.00" departLane="best">
        <route edges="413718443#1 -7975390#9 -7975390#4 7975391#5 7975428#3 375722892#0 290601649#2 -367772443#2 10522157#1 10522159#0 290601651#4 375722891#0 31722493#0 gneE10 7975439#2 31722496#1 31722496#1.197 -7975405#7 -7975405#4 4365022#1"/>
    </vehicle>
    <vehicle id="moto66" type="moto_motorcycle" depart="2640.00" departLane="best">
        <route edges="326114792#1 -276159044 -238863539#3 462507193 62089686#1 62089686#3 33364787 7975426#0 7975424#2 374169546#1 374169546#7 374169546#9 10522108#3 30426811 319192888 125502238#1"/>
    </vehicle>
    <vehicle id="moto67" type="moto_motorcycle" depart="2680.00" departLane="best">
        <route edges="-8074220#2 -8074188#3 -7975405#7 -7975409#4 -7975407#1 38075402#2 103495995#0 231661249#1 231661249#2 7976290#2"/>
    </vehicle>
    <vehicle id="moto68" type="moto_motorcycle" depart="2720.00" departLane="best">
        <route edges="385335098#0 385335098#1 314533294#0 32905529#0 68327840#2 217194754#2 42128193#1 626854755#0 8078962#3 106531541#7"/>
    </vehicle>
    <vehicle id="moto69" type="moto_motorcycle" depart="2760.00" departLane="best">
        <route edges="-8074215#8 -8074215#6 -8074215#5 -8074215#3 -8074215#2 626854755#0 626854755#2 559569229#0 559569229#0.143 231661249#1 231661249#2 231661249#3"/>
    </vehicle>
    <vehicle id="moto70" type="moto_motorcycle" depart="2800.00" departLane="best">
        <route edges="-10237438#0 7975405#2 7975405#6 231661249#8 231661249#8.62 31722495#0 624411668#2 31722494#3 25624802#2 378048182 378048188#1 10522174#2"/>
    </vehicle>
    <vehicle id="moto71" type="moto_motorcycle" depart="2840.00" departLane="best">
        <route edges="106698930#0 325528580#3 24271246#1 32905474 27571113 310964899 288155218 4743726 320858421 122164832#0 122164793 378048176#2 263432785#7 263432785#7.8 378048179#1 7975437#0 7975439#2 31722496#1 31722496#1.197 31722496#6 59393478#0 59393478#2 106531540#2 106531540#2.51 231661245#1 231661245#2 231661245#3 8074215#2 8074215#3 8074215#5 -8074204#0"/>
    </vehicle>
    <vehicle id="moto72" type="moto_motorcycle" depart="2880.00" departLane="best">
        <route edges="5139388#3 -33077282 -375862680#7 -375862680#4 375862677#7 318774686 51352411 318774679#0 292107965#1 -577566285"/>
    </vehicle>
    <vehicle id="moto73" type="moto_motorcycle" depart="2920.00" departLane="best">
        <route edges="10526071#1 -323437935#1 -8074188#3 231661249#8 231661249#8.62 31722495#0 624411668#2 48894048 30128883 7975428#1 7975428#3 375722892#0 135155217#1 83723985#2 378166624#2"/>
    </vehicle>
    <vehicle id="moto74" type="moto_motorcycle" depart="2960.00" departLane="best">
        <route edges="4314516#4 4314516#5 299910129#4 299910129#7 299910129#7.6 375862677#2 375862677#4 375862677#7 318774686 318774678#1 318774678#3 318774678#6 4304445#0 6143906"/>
    </vehicle>
    <vehicle id="moto75" type="moto_motorcycle" depart="3000.00" departLane="best">
        <route edges="24038685#4 24038685#7 7975426#0 83723985#2 378166624#2 394077003#0 -526422259#1 -413718443#6 -218253719#3"/>
    </vehicle>
    <vehicle id="moto76" type="moto_motorcycle" depart="3040.00" departLane="best">
        <route edges="-7975383 -375862675#2 33364787 7975426#0 48861560#2 48861560#3 290601651#0 290601651#4 375722891#0 31722493#0 gneE10 7975439#2 31722496#1 31722496#1.197 -7975405#7 -7975409#4 -7975407#1 38075402#2 103495995#0 231661249#1 231661249#2 7976290#2"/>
    </vehicle>
    <vehicle id="moto77" type="moto_motorcycle" depart="3080.00" departLane="best">
        <route edges="7976290#2 7975407#0 7975409#3 -7975405#4 4365022#1 24857827#0 24857827#1 413718443#1 526422259#0 375727027#0"/>
    </vehicle>
    <vehicle id="moto78" type="moto_motorcycle" depart="3120.00" departLane="best">
        <route edges="8004023#0 507114924#0 507113454 318774677#0 6144590#1 37389514#0 37389514#3 462507193 62089686#1 -7976291#1 -483465545#3 5140732"/>
    </vehicle>
    <vehicle id="moto80" type="moto_motorcycle" depart="3200.00" departLane="best">
        <route edges="31722494#1 31722494#3 gneE10 7975439#2 31722496#1 31722496#1.197 -7975405#7 -7975409#4 -7975407#1 38075402#2 103495995#0"/>
    </vehicle>
    <vehicle id="moto81" type="moto_motorcycle" depart="3240.00" departLane="best">
        <route edges="38075402#0 7975407#0 7975409#3 7975405#6 231661249#8 231661249#8.62 31722495#0 624411668#2 48894048 30128883 7975428#1 7975428#3 375722892#0 135155217#1 7975424#2 -25270811#10 -25270811#8 -25270811#7 -25270811#6"/>
    </vehicle>
    <vehicle id="moto82" type="moto_motorcycle" depart="3280.00" departLane="best">
        <route edges="10526071#1 -323437935#1 -8074188#3 31722496#6 59393478#0 59393478#2 106531540#2 106531540#2.51 231661245#1 231661245#2 231661245#3 626854754#1 626854754#2 59393481#0 59393481#2 314533296#0 30998338#0 529421172#0 8074164#0 -8074173#4"/>
    </vehicle>
    <vehicle id="moto83" type="moto_motorcycle" depart="3320.00" departLane="best">
        <route edges="10517312#5 277665454#4 gneE11 gneE13.27 319192876#0 319192876#3 319192876#4 319192876#9 374169552#0 -25270811#10 -25270811#8 -25270811#7 4729377#0 -8074412#0 25270811#9 374169546#1 374169546#7 374169546#9 10522108#3 30426790#0 -30426838#4 -30426838#3 -10517312#6"/>
    </vehicle>
    <vehicle id="moto84" type="moto_motorcycle" depart="3360.00" departLane="best">
        <route edges="68327844#0 68327844#0.48 10231574#2 385335098#1 314533294#0 30998338#0 27150093#0 325528580#0 325528580#1 325528580#2 325528580#3 4526773#1 gneE3 gneE19 gneE24"/>
    </vehicle>
    <vehicle id="moto85" type="moto_motorcycle" depart="3400.00" departLane="best">
        <route edges="-8074416#1 25270811#8 25270811#9 374169548#0 374169553#0 48861560#2 48861560#3 290601651#0 290601651#4 375722891#0 31722493#0 25624802#2 378048182 378048188#1 10522141#0 10522141#3 23178214#3 23178214#4 332893806 113861083 4725993"/>
    </vehicle>
    <vehicle id="moto86" type="moto_motorcycle" depart="3440.00" departLane="best">
        <route edges="310964899 288155218 4743726 320858421 122164832#0 122164793 378048176#2 263432785#7 263432785#7.8 378048179#1 7975437#0 7975439#2 31722496#1 31722496#1.197 8074188#3 8074188#5 -10526071#1"/>
    </vehicle>
    <vehicle id="moto87" type="moto_motorcycle" depart="3480.00" departLane="best">
        <route edges="-25584897#3 121709566#3 507114919#0 318774678#6 4304445#0 6143906 26691822#2 26229175 299911658 25115860 25115860-AddedOffRampEdge 277671135 277665454#0 277671146 277671138 332880773 332880774 67491685 431412128 26229239#0"/>
    </vehicle>
    <vehicle id="moto88" type="moto_motorcycle" depart="3520.00" departLane="best">
        <route edges="-161838918 -10529294#1 -10529294#0 -8074215#3 -8074215#2 626854755#0 626854755#2 559569229#0 559569229#0.143 231661249#1 231661249#2 231661249#3 231661249#3.63 8074188#3 8074188#5 218253717#0 218253720#3"/>
    </vehicle>
    <vehicle id="moto89" type="moto_motorcycle" depart="3560.00" departLane="best">
        <route edges="4314516#4 4314516#5 62089686#3 33364787 7975426#0 48861560#2 48861560#3 290601651#0 290601651#4 375722891#0 31722493#0 gneE10 4365024#2 4365024#3 4365024#7 24857827#0 7975408#0"/>
    </vehicle>
    <vehicle id="moto90" type="moto_motorcycle" depart="3600.00" departLane="best">
        <route edges="-7975383 -375862675#2 33364787 7975426#0 48861560#2 48861560#3 290601651#0 290601651#4 375722891#0 31722493#0 gneE10 7975439#2 484593099#1 484593099#3 -8074201#2 -323437935#1"/>
    </vehicle>
    <vehicle id="moto91" type="moto_motorcycle" depart="3640.00" departLane="best">
        <route edges="gneE9 31722494#1 31722494#3 gneE10 7975439#2 484593099#1 484593099#3 218253720#2 8074174#0 167286681#1"/>
    </vehicle>
    <vehicle id="moto92" type="moto_motorcycle" depart="3680.00" departLane="best">
        <route edges="-23713549#0 276159045#0 -238863539#3 462507193 62089686#1 62089686#3 33364787 7975426#0 7975424#2 374169546#1 374169546#7 374169546#9 10522108#3 30426790#0 -30426838#4 -30426838#3 30426842#1 277671146 277671138 332880773 332880774 67491685 431412128 26229179#0 47007890 121709566#3 507114919#0 507114924#0 507113454 318774677#0 6144590#1 4314616#3 4314616#4"/>
    </vehicle>
    <vehicle id="moto93" type="moto_motorcycle" depart="3720.00" departLane="best">
        <route edges="378048182 378048188#1 10522141#0 10522141#3 8074184#2 30424216#0 122164799#0 8074181#3 122164793 378048176#2 263432785#7 263432785#7.8 378048179#1 7975437#0 7975439#2 31722496#1 31722496#1.197 31722496#6 59393478#0"/>
    </vehicle>
    <vehicle id="moto94" type="moto_motorcycle" depart="3760.00" departLane="best">
        <route edges="4314516#4 4314516#5 299910129#4 299910129#7 299910129#7.6 375862677#2 375862677#4 375862677#7 318774686 51352411 318774679#0 292107965#1 484594390#1 -384709617#1"/>
    </vehicle>
    <vehicle id="moto96" type="moto_motorcycle" depart="3840.00" departLane="best">
        <route edges="375727032#0 5140733#2 7976291#0 62089686#3 33364787 7975426#0 48861560#2 48861560#3 290601651#0 290601651#4 375722891#0 31722493#0 gneE10 7975439#2 484593099#1 10526059#0 378048179#1"/>
    </vehicle>
    <vehicle id="moto97" type="moto_motorcycle" depart="3880.00" departLane="best">
        <route edges="501406798#0 501406797 501406799#0 7975425#0 48861560#2 48861560#3 290601651#0 290601651#4 375722891#0 31722493#0 gneE10 7975439#2 484593099#1 484593099#3 218253720#2 8074174#0 167286681#1"/>
    </vehicle>
    <vehicle id="moto98" type="moto_motorcycle" depart="3920.00" departLane="best">
        <route edges="106531541#5 -8078962#6 231661245#2 231661245#3 8074215#2 8074215#3 8074215#5 8074215#6 -8074159#5 217362176#3"/>
    </vehicle>
    <vehicle id="moto99" type="moto_motorcycle" depart="3960.00" departLane="best">
        <route edges="231661249#1 231661249#2 7976290#2 38075402#2 103495995#0 106531540#2 106531540#2.51 231661245#1 231661245#2 231661245#3 626854754#1 8074171#3 161838918"/>
    </vehicle>
    <vehicle id="moto100" type="moto_motorcycle" depart="4000.00" departLane="best">
        <route edges="626854755#0 626854755#2 559569229#0 559569229#0.143 231661249#1 231661249#2 7976290#2 7975407#0 7975407#2"/>
    </vehicle>
    <vehicle id="moto101" type="moto_motorcycle" depart="4040.00" departLane="best">
        <route edges="38075402#0 7975407#0 7975409#3 7975405#6 231661249#8 231661249#8.62 31722495#0 624411668#2 48894048 30128883 7975428#1 7975428#3 375722892#0 135155217#1 7975424#2 -25270811#10 8074412#0 24038685#0 24038685#4 24038685#7"/>
    </vehicle>
    <vehicle id="moto102" type="moto_motorcycle" depart="4080.00" departLane="best">
        <route edges="-7975407#2 7975409#3 7975405#6 231661249#8 231661249#8.62 31722495#0 624411668#2 48894048 30128883 7975428#1 7975428#3 375722892#0 135155217#1 299910129#2 299910129#2.39 299910129#3 299910129#4 299910129#7 375862676#2 7975381#1"/>
    </vehicle>
    <vehicle id="moto103" type="moto_motorcycle" depart="4120.00" departLane="best">
        <route edges="25270811#9 374169548#0 374169553#0 299910129#2 299910129#2.39 299910129#3 299910129#4 299910129#7 299910129#7.6 375862677#2 375862677#4 375862677#7 318774686 318774678#1 318774678#3 318774678#6 4304445#0 6143906 26691822#2 26229175 299911658 25115860 25115860-AddedOffRampEdge 277671135"/>
    </vehicle>
    <vehicle id="moto104" type="moto_motorcycle" depart="4160.00" departLane="best">
        <route edges="577566285 292107968#0 306488581 306488582 6144590#1 4314616#3 4314616#4 276159045#0 276159044 -326114792#1"/>
    </vehicle>
    <vehicle id="moto106" type="moto_motorcycle" depart="4240.00" departLane="best">
        <route edges="-8105196 8074215#5 -8074204#0 8074199#4 8074199#8"/>
    </vehicle>
    <vehicle id="moto107" type="moto_motorcycle" depart="4280.00" departLane="best">