<?xml version="1.0" encoding="UTF-8"?>
<!-- generated on 2018-11-26 17:38:25.371000 by $Id$ via randomTrips.py
  options: -n sirene.net.xml <doubleminus>seed 42 <doubleminus>fringe-factor 10 -p 5 -r sirene.bicycle.rou.xml -o sirene.bicycle.trips.xml -e 10800 <doubleminus>vehicle-class bicycle <doubleminus>vclass bicycle <doubleminus>prefix bike <doubleminus>max-distance 8000 <doubleminus>trip-attributes departLane="best" <doubleminus>validate
-->
<routes xmlns:xsi="http://www.w3.org/2001/XMLSchema-instance" xsi:noNamespaceSchemaLocation="http://sumo.dlr.de/xsd/routes_file.xsd">
    <vType id="bike_bicycle" vClass="bicycle">
    </vType>
    <trip id="bike12" depart="60.00" departLane="best" from="8004023#0" to="290601651#4" type="bike_bicycle"/>
    <trip id="bike23" depart="115.00" departLane="best" from="-355309951#3" to="231661249#3.63" type="bike_bicycle"/>
    <trip id="bike63" depart="315.00" departLane="best" from="-106531547#0" to="7975428#3" type="bike_bicycle"/>
    <trip id="bike64" depart="320.00" departLane="best" from="62089686#3" to="61890329" type="bike_bicycle"/>
    <trip id="bike66" depart="330.00" departLane="best" from="62089686#1" to="8074184#2" type="bike_bicycle"/>
    <trip id="bike80" depart="400.00" departLane="best" from="-32020609#1" to="385335099#0" type="bike_bicycle"/>
    <trip id="bike89" depart="445.00" departLane="best" from="314533296#0" to="325528580#3" type="bike_bicycle"/>
    <trip id="bike101" depart="505.00" departLane="best" from="59393478#2" to="106531540#2" type="bike_bicycle"/>
    <trip id="bike106" depart="530.00" departLane="best" from="318774678#6" to="318774678#6" type="bike_bicycle"/>
    <trip id="bike109" depart="545.00" departLane="best" from="10231578#3" to="24857827#0" type="bike_bicycle"/>
    <trip id="bike116" depart="580.00" departLane="best" from="385335098#0" to="387385476#1" type="bike_bicycle"/>
    <trip id="bike117" depart="585.00" departLane="best" from="121709566#3" to="-8004023#0" type="bike_bicycle"/>
    <trip id="bike119" depart="595.00" departLane="best" from="385335098#0" to="385335098#1" type="bike_bicycle"/>
    <trip id="bike120" depart="600.00" departLane="best" from="314533294#0" to="375727027#0" type="bike_bicycle"/>
    <trip id="bike124" depart="620.00" departLane="best" from="42128193#1" to="24857827#1" type="bike_bicycle"/>
    <trip id="bike126" depart="630.00" departLane="best" from="-32020609#1" to="325528580#0" type="bike_bicycle"/>
    <trip id="bike131" depart="655.00" departLane="best" from="290601651#4" to="10522141#3" type="bike_bicycle"/>
    <trip id="bike148" depart="740.00" departLane="best" from="31722493#0" to="-291313154" type="bike_bicycle"/>
    <trip id="bike156" depart="780.00" departLane="best" from="135155217#1" to="-577566285" type="bike_bicycle"/>
    <trip id="bike159" depart="795.00" departLane="best" from="10231578#3" to="7975434#0" type="bike_bicycle"/>
    <trip id="bike165" depart="825.00" departLane="best" from="559569229#0.143" to="231661249#1" type="bike_bicycle"/>
    <trip id="bike176" depart="880.00" departLane="best" from="8004023#0" to="-70545096#5" type="bike_bicycle"/>
    <trip id="bike184" depart="920.00" departLane="best" from="-106531547#0" to="7975428#1" type="bike_bicycle"/>
    <trip id="bike186" depart="930.00" departLane="best" from="503119834#6" to="387385476#1" type="bike_bicycle"/>
    <trip id="bike215" depart="1075.00" departLane="best" from="-413718443#6" to="318774679#0" type="bike_bicycle"/>
    <trip id="bike216" depart="1080.00" departLane="best" from="10231578#3" to="83723985#2" type="bike_bicycle"/>
    <trip id="bike230" depart="1150.00" departLane="best" from="-32020609#1" to="23620034#0" type="bike_bicycle"/>
    <trip id="bike238" depart="1190.00" departLane="best" from="378166624#2" to="394077003#0" type="bike_bicycle"/>
    <trip id="bike247" depart="1235.00" departLane="best" from="24857829#2" to="387385476#1" type="bike_bicycle"/>
    <trip id="bike254" depart="1270.00" departLane="best" from="-207177331#0" to="306488582" type="bike_bicycle"/>
    <trip id="bike257" depart="1285.00" departLane="best" from="507114924#0" to="61890329" type="bike_bicycle"/>
    <trip id="bike258" depart="1290.00" departLane="best" from="171266151#0" to="-577566285" type="bike_bicycle"/>
    <trip id="bike260" depart="1300.00" departLane="best" from="gneE9" to="299910129#2.39" type="bike_bicycle"/>
    <trip id="bike269" depart="1345.00" departLane="best" from="507114919#0" to="-70545096#5" type="bike_bicycle"/>
    <trip id="bike272" depart="1360.00" departLane="best" from="231661249#8" to="387385476#1" type="bike_bicycle"/>
    <trip id="bike273" depart="1365.00" departLane="best" from="8004023#0" to="31722493#0" type="bike_bicycle"/>
    <trip id="bike282" depart="1410.00" departLane="best" from="59393481#0" to="59393481#2" type="bike_bicycle"/>
    <trip id="bike308" depart="1540.00" departLane="best" from="507113454" to="277671152" type="bike_bicycle"/>
    <trip id="bike323" depart="1615.00" departLane="best" from="61996453#2.12" to="375727027#0" type="bike_bicycle"/>
    <trip id="bike324" depart="1620.00" departLane="best" from="319192876#4" to="319192876#9" type="bike_bicycle"/>
    <trip id="bike328" depart="1640.00" departLane="best" from="-32020609#1" to="385335099#0" type="bike_bicycle"/>
    <trip id="bike334" depart="1670.00" departLane="best" from="37389514#0" to="320858416" type="bike_bicycle"/>
    <trip id="bike347" depart="1735.00" departLane="best" from="529421168" to="385335099#0" type="bike_bicycle"/>
    <trip id="bike363" depart="1815.00" departLane="best" from="42128193#1" to="231661249#2" type="bike_bicycle"/>
    <trip id="bike390" depart="1950.00" departLane="best" from="577566285" to="348909761#0" type="bike_bicycle"/>
    <trip id="bike413" depart="2065.00" departLane="best" from="-207177331#0" to="348909761#0" type="bike_bicycle"/>
    <trip id="bike414" depart="2070.00" departLane="best" from="385335098#0" to="68327840#2" type="bike_bicycle"/>
    <trip id="bike426" depart="2130.00" departLane="best" from="-32020609#1" to="385335099#0" type="bike_bicycle"/>
    <trip id="bike429" depart="2145.00" departLane="best" from="-32020609#1" to="385335099#0" type="bike_bicycle"/>
    <trip id="bike441" depart="2205.00" departLane="best" from="-106531547#0" to="559569229#0" type="bike_bicycle"/>
    <trip id="bike442" depart="2210.00" departLane="best" from="68327840#2" to="387385476#1" type="bike_bicycle"/>
    <trip id="bike457" depart="2285.00" departLane="best" from="385335098#0" to="299910129#2.39" type="bike_bicycle"/>
    <trip id="bike480" depart="2400.00" departLane="best" from="42128193#1" to="375727027#0" type="bike_bicycle"/>
    <trip id="bike492" depart="2460.00" departLane="best" from="42128193#1" to="503119834#6" type="bike_bicycle"/>
    <trip id="bike515" depart="2575.00" departLane="best" from="171266151#0" to="106531547#0" type="bike_bicycle"/>
    <trip id="bike531" depart="2655.00" departLane="best" from="-32020609#1" to="378048179#1" type="bike_bicycle"/>
    <trip id="bike536" depart="2680.00" departLane="best" from="385335098#0" to="-577566285" type="bike_bicycle"/>
    <trip id="bike549" depart="2745.00" departLane="best" from="378166624#2" to="375727027#0" type="bike_bicycle"/>
    <trip id="bike554" depart="2770.00" departLane="best" from="385335098#0" to="299910129#2.39" type="bike_bicycle"/>
    <trip id="bike567" depart="2835.00" departLane="best" from="61996453#2" to="375727027#0" type="bike_bicycle"/>
    <trip id="bike571" depart="2855.00" departLane="best" from="314533294#0" to="292107965#1" type="bike_bicycle"/>
    <trip id="bike583" depart="2915.00" departLane="best" from="299910129#7.6" to="375862677#4" type="bike_bicycle"/>
    <trip id="bike591" depart="2955.00" departLane="best" from="-32020609#1" to="626854754#2" type="bike_bicycle"/>
    <trip id="bike599" depart="2995.00" departLane="best" from="7975425#0" to="-577566285" type="bike_bicycle"/>
    <trip id="bike608" depart="3040.00" departLane="best" from="577566285" to="207177331#0" type="bike_bicycle"/>
    <trip id="bike610" depart="3050.00" departLane="best" from="385335098#0" to="526422259#0" type="bike_bicycle"/>
    <trip id="bike619" depart="3095.00" departLane="best" from="231661249#2" to="231661249#3" type="bike_bicycle"/>
    <trip id="bike620" depart="3100.00" departLane="best" from="-207177331#0" to="348909761#0" type="bike_bicycle"/>
    <trip id="bike639" depart="3195.00" departLane="best" from="529421168" to="385335099#0" type="bike_bicycle"/>
    <trip id="bike643" depart="3215.00" departLane="best" from="68327844#0" to="68327844#0" type="bike_bicycle"/>
    <trip id="bike647" depart="3235.00" departLane="best" from="299910129#7" to="375862677#2" type="bike_bicycle"/>
    <trip id="bike656" depart="3280.00" departLane="best" from="8004023#0" to="33364787" type="bike_bicycle"/>
    <trip id="bike669" depart="3345.00" departLane="best" from="507114919#0" to="320858416" type="bike_bicycle"/>
    <trip id="bike687" depart="3435.00" departLane="best" from="-207177331#0" to="348909761#0" type="bike_bicycle"/>
    <trip id="bike702" depart="3510.00" departLane="best" from="318774679#0" to="-577566285" type="bike_bicycle"/>
    <trip id="bike706" depart="3530.00" departLane="best" from="31722493#0" to="378048188#1" type="bike_bicycle"/>
    <trip id="bike708" depart="3540.00" departLane="best" from="394077003#0" to="-577566285" type="bike_bicycle"/>
    <trip id="bike745" depart="3725.00" departLane="best" from="61996453#2" to="299910129#2.39" type="bike_bicycle"/>
    <trip id="bike747" depart="3735.00" departLane="best" from="8074184#2" to="8074184#2" type="bike_bicycle"/>
    <trip id="bike748" depart="3740.00" departLane="best" from="-32020609#1" to="385335099#0" type="bike_bicycle"/>
    <trip id="bike780" depart="3900.00" departLane="best" from="374169553#0" to="378048182" type="bike_bicycle"/>
    <trip id="bike781" depart="3905.00" departLane="best" from="-32020609#1" to="263432785#7" type="bike_bicycle"/>
    <trip id="bike785" depart="3925.00" departLane="best" from="8074181#2" to="385335099#0" type="bike_bicycle"/>
    <trip id="bike788" depart="3940.00" departLane="best" from="529421168" to="385335099#0" type="bike_bicycle"/>
    <trip id="bike798" depart="3990.00" departLane="best" from="231661249#2" to="37390117#3" type="bike_bicycle"/>
    <trip id="bike800" depart="4000.00" departLane="best" from="8004023#0" to="10522141#0" type="bike_bicycle"/>
    <trip id="bike821" depart="4105.00" departLane="best" from="-32020609#1" to="23620034#0.48" type="bike_bicycle"/>
    <trip id="bike831" depart="4155.00" departLane="best" from="277665454#0" to="-538699600" type="bike_bicycle"/>
    <trip id="bike840" depart="4200.00" departLane="best" from="32755484#2" to="529421166#0" type="bike_bicycle"/>
    <trip id="bike843" depart="4215.00" departLane="best" from="8074181#3" to="314533296#0" type="bike_bicycle"/>
    <trip id="bike860" depart="4300.00" departLane="best" from="47007890" to="-291313154" type="bike_bicycle"/>
    <trip id="bike881" depart="4405.00" departLane="best" from="385335098#0" to="106531547#0" type="bike_bicycle"/>
    <trip id="bike884" depart="4420.00" departLane="best" from="231661245#3" to="23620034#0.48" type="bike_bicycle"/>
    <trip id="bike886" depart="4430.00" departLane="best" from="231661249#8.62" to="299910129#2" type="bike_bicycle"/>
    <trip id="bike892" depart="4460.00" departLane="best" from="231661245#1" to="23620034#0" type="bike_bicycle"/>
    <trip id="bike898" depart="4490.00" departLane="best" from="385335098#0" to="375727027#0" type="bike_bicycle"/>
    <trip id="bike918" depart="4590.00" departLane="best" from="-106531547#0" to="375727027#0" type="bike_bicycle"/>
    <trip id="bike928" depart="4640.00" departLane="best" from="518086681" to="106531547#0" type="bike_bicycle"/>
    <trip id="bike930" depart="4650.00" departLane="best" from="577566285" to="348909761#0" type="bike_bicycle"/>
    <trip id="bike950" depart="4750.00" departLane="best" from="135155217#1" to="51352411" type="bike_bicycle"/>
    <trip id="bike951" depart="4755.00" departLane="best" from="61996453#2.12" to="-577566285" type="bike_bicycle"/>
    <trip id="bike966" depart="4830.00" departLane="best" from="-207177331#0" to="292107968#0" type="bike_bicycle"/>
    <trip id="bike979" depart="4895.00" departLane="best" from="37389514#3" to="48861560#3" type="bike_bicycle"/>
    <trip id="bike981" depart="4905.00" departLane="best" from="-106531547#0" to="24857827#1" type="bike_bicycle"/>
    <trip id="bike984" depart="4920.00" departLane="best" from="135155217#1" to="299910129#2" type="bike_bicycle"/>
    <trip id="bike991" depart="4955.00" departLane="best" from="385335098#0" to="42128193#1" type="bike_bicycle"/>
    <trip id="bike995" depart="4975.00" departLane="best" from="-207177331#0" to="348909761#0" type="bike_bicycle"/>
    <trip id="bike998" depart="4990.00" departLane="best" from="385335098#0" to="387385476#1" type="bike_bicycle"/>
    <trip id="bike1007" depart="5035.00" departLane="best" from="529421168" to="27150096#0" type="bike_bicycle"/>
    <trip id="bike1020" depart="5100.00" departLane="best" from="385335098#0" to="68327844#0" type="bike_bicycle"/>
    <trip id="bike1031" depart="5155.00" departLane="best" from="299910129#2" to="37390117#3" type="bike_bicycle"/>
    <trip id="bike1036" depart="5180.00" departLane="best" from="7975424#2" to="30426811" type="bike_bicycle"/>
    <trip id="bike1061" depart="5305.00" departLane="best" from="-106531547#0" to="37390117#2" type="bike_bicycle"/>
    <trip id="bike1072" depart="5360.00" departLane="best" from="462507193" to="62089686#3" type="bike_bicycle"/>
    <trip id="bike1074" depart="5370.00" departLane="best" from="518086681" to="-577566285" type="bike_bicycle"/>
    <trip id="bike1085" depart="5425.00" departLane="best" from="626854755#2" to="375727027#0" type="bike_bicycle"/>
    <trip id="bike1091" depart="5455.00" departLane="best" from="125502238#1" to="61890739#2" type="bike_bicycle"/>
    <trip id="bike1098" depart="5490.00" departLane="best" from="263432785#7" to="529421167#0" type="bike_bicycle"/>
    <trip id="bike1099" depart="5495.00" departLane="best" from="8004023#0" to="31722493#0" type="bike_bicycle"/>
    <trip id="bike1111" depart="5555.00" departLane="best" from="231661249#3.63" to="299910129#7" type="bike_bicycle"/>
    <trip id="bike1113" depart="5565.00" departLane="best" from="10522141#0" to="320858416" type="bike_bicycle"/>
    <trip id="bike1115" depart="5575.00" departLane="best" from="-106531547#0" to="299910129#3" type="bike_bicycle"/>
    <trip id="bike1121" depart="5605.00" departLane="best" from="378048176#2" to="106531540#2.51" type="bike_bicycle"/>
    <trip id="bike1128" depart="5640.00" departLane="best" from="385335098#0" to="106531547#0" type="bike_bicycle"/>
    <trip id="bike1130" depart="5650.00" departLane="best" from="8004023#0" to="277671152" type="bike_bicycle"/>
    <trip id="bike1136" depart="5680.00" departLane="best" from="106531540#2.51" to="27150093#0" type="bike_bicycle"/>
    <trip id="bike1149" depart="5745.00" departLane="best" from="306488581" to="348909761#0" type="bike_bicycle"/>
    <trip id="bike1159" depart="5795.00" departLane="best" from="-32020609#1" to="529421167#0" type="bike_bicycle"/>
    <trip id="bike1171" depart="5855.00" departLane="best" from="-106531547#0" to="-577566285" type="bike_bicycle"/>
    <trip id="bike1180" depart="5900.00" departLane="best" from="59393478#2" to="385335099#0" type="bike_bicycle"/>
    <trip id="bike1188" depart="5940.00" departLane="best" from="385335098#0" to="106531547#0" type="bike_bicycle"/>
    <trip id="bike1193" depart="5965.00" departLane="best" from="61996453#2.12" to="106531547#0" type="bike_bicycle"/>
    <trip id="bike1198" depart="5990.00" departLane="best" from="385335098#0" to="299910129#2" type="bike_bicycle"/>
    <trip id="bike1217" depart="6085.00" departLane="best" from="577566285" to="348909761#0" type="bike_bicycle"/>
    <trip id="bike1221" depart="6105.00" departLane="best" from="10231578#3" to="325528580#0" type="bike_bicycle"/>
    <trip id="bike1235" depart="6175.00" departLane="best" from="385335098#0" to="299910129#2.39" type="bike_bicycle"/>
    <trip id="bike1255" depart="6275.00" departLane="best" from="32905529#0" to="231661249#3.63" type="bike_bicycle"/>
    <trip id="bike1260" depart="6300.00" departLane="best" from="318774686" to="387385476#1" type="bike_bicycle"/>
    <trip id="bike1261" depart="6305.00" departLane="best" from="277665454#2" to="-538699600" type="bike_bicycle"/>
    <trip id="bike1273" depart="6365.00" departLane="best" from="47007890" to="-8004023#0" type="bike_bicycle"/>
    <trip id="bike1279" depart="6395.00" departLane="best" from="231661249#3" to="413718443#1" type="bike_bicycle"/>
    <trip id="bike1287" depart="6435.00" departLane="best" from="-32020609#1" to="30998338#0" type="bike_bicycle"/>
    <trip id="bike1319" depart="6595.00" departLane="best" from="-32020609#1" to="231661245#2" type="bike_bicycle"/>
    <trip id="bike1325" depart="6625.00" departLane="best" from="385335098#0" to="231661249#3.63" type="bike_bicycle"/>
    <trip id="bike1331" depart="6655.00" departLane="best" from="48861560#3" to="48861560#3" type="bike_bicycle"/>
    <trip id="bike1335" depart="6675.00" departLane="best" from="231661249#3.63" to="503119834#6" type="bike_bicycle"/>
    <trip id="bike1338" depart="6690.00" departLane="best" from="10231578#3" to="8078963#2" type="bike_bicycle"/>
    <trip id="bike1344" depart="6720.00" departLane="best" from="559569229#0" to="231661249#2" type="bike_bicycle"/>
    <trip id="bike1362" depart="6810.00" departLane="best" from="68327840#2" to="106531547#0" type="bike_bicycle"/>
    <trip id="bike1367" depart="6835.00" departLane="best" from="374169553#0" to="-291313154" type="bike_bicycle"/>
    <trip id="bike1377" depart="6885.00" departLane="best" from="8004023#0" to="-291313154" type="bike_bicycle"/>
    <trip id="bike1397" depart="6985.00" departLane="best" from="10231578#3" to="325528580#3" type="bike_bicycle"/>
    <trip id="bike1423" depart="7115.00" departLane="best" from="10231578#3" to="375727027#0" type="bike_bicycle"/>
    <trip id="bike1425" depart="7125.00" departLane="best" from="-106531547#0" to="387385476#1" type="bike_bicycle"/>
    <trip id="bike1439" depart="7195.00" departLane="best" from="32755484#1" to="314533295#0" type="bike_bicycle"/>
    <trip id="bike1452" depart="7260.00" departLane="best" from="10231578#3" to="375727027#0" type="bike_bicycle"/>
    <trip id="bike1466" depart="7330.00" departLane="best" from="-106531547#0" to="375727027#0" type="bike_bicycle"/>
    <trip id="bike1468" depart="7340.00" departLane="best" from="59393478#2" to="626854754#2" type="bike_bicycle"/>
    <trip id="bike1469" depart="7345.00" departLane="best" from="8004023#0" to="30426842#1" type="bike_bicycle"/>
    <trip id="bike1470" depart="7350.00" departLane="best" from="8004023#0" to="31722493#0" type="bike_bicycle"/>
    <trip id="bike1478" depart="7390.00" departLane="best" from="385335098#0" to="106531547#0" type="bike_bicycle"/>
    <trip id="bike1479" depart="7395.00" departLane="best" from="231661249#3" to="387385476#1" type="bike_bicycle"/>
    <trip id="bike1481" depart="7405.00" departLane="best" from="8004023#0" to="8074184#2" type="bike_bicycle"/>
    <trip id="bike1507" depart="7535.00" departLane="best" from="626854755#2" to="-577566285" type="bike_bicycle"/>
    <trip id="bike1509" depart="7545.00" departLane="best" from="320858416" to="-291313154" type="bike_bicycle"/>
    <trip id="bike1518" depart="7590.00" departLane="best" from="10231578#3" to="299910129#7" type="bike_bicycle"/>
    <trip id="bike1520" depart="7600.00" departLane="best" from="392792123#2" to="375862677#7" type="bike_bicycle"/>
    <trip id="bike1524" depart="7620.00" departLane="best" from="231661249#3.63" to="31722495#0" type="bike_bicycle"/>
    <trip id="bike1536" depart="7680.00" departLane="best" from="577566285" to="318774678#3" type="bike_bicycle"/>
    <trip id="bike1540" depart="7700.00" departLane="best" from="68327840#2" to="4365024#7" type="bike_bicycle"/>
    <trip id="bike1544" depart="7720.00" departLane="best" from="518086681" to="106531547#0" type="bike_bicycle"/>
    <trip id="bike1555" depart="7775.00" departLane="best" from="529421168" to="385335099#0" type="bike_bicycle"/>
    <trip id="bike1560" depart="7800.00" departLane="best" from="375862677#2" to="-577566285" type="bike_bicycle"/>
    <trip id="bike1569" depart="7845.00" departLane="best" from="507113454" to="7975426#0" type="bike_bicycle"/>
    <trip id="bike1580" depart="7900.00" departLane="best" from="518086681" to="626854755#2" type="bike_bicycle"/>
    <trip id="bike1581" depart="7905.00" departLane="best" from="577566285" to="348909761#0" type="bike_bicycle"/>
    <trip id="bike1590" depart="7950.00" departLane="best" from="32755484#2" to="385335099#0" type="bike_bicycle"/>
    <trip id="bike1593" depart="7965.00" departLane="best" from="10231578#3" to="68327840#2" type="bike_bicycle"/>
    <trip id="bike1594" depart="7970.00" departLane="best" from="385335098#0" to="299910129#2.39" type="bike_bicycle"/>
    <trip id="bike1598" depart="7990.00" departLane="best" from="10231578#3" to="375727027#0" type="bike_bicycle"/>
    <trip id="bike1606" depart="8030.00" departLane="best" from="171266151#0" to="559569229#0" type="bike_bicycle"/>
    <trip id="bike1610" depart="8050.00" departLane="best" from="171266151#0" to="325528580#3" type="bike_bicycle"/>
    <trip id="bike1611" depart="8055.00" departLane="best" from="4304445#0" to="6143906" type="bike_bicycle"/>
    <trip id="bike1612" depart="8060.00" departLane="best" from="299910129#7.6" to="-577566285" type="bike_bicycle"/>
    <trip id="bike1616" depart="8080.00" departLane="best" from="231661249#1" to="-577566285" type="bike_bicycle"/>
    <trip id="bike1622" depart="8110.00" departLane="best" from="626854755#2" to="559569229#0" type="bike_bicycle"/>
    <trip id="bike1624" depart="8120.00" departLane="best" from="392792123#2" to="387385476#1" type="bike_bicycle"/>
    <trip id="bike1635" depart="8175.00" departLane="best" from="10231578#3" to="-577566285" type="bike_bicycle"/>
    <trip id="bike1639" depart="8195.00" departLane="best" from="24857829#2" to="-577566285" type="bike_bicycle"/>
    <trip id="bike1681" depart="8405.00" departLane="best" from="10231578#3" to="30128883" type="bike_bicycle"/>
    <trip id="bike1691" depart="8455.00" departLane="best" from="231661249#1" to="387385476#1" type="bike_bicycle"/>
    <trip id="bike1703" depart="8515.00" departLane="best" from="-106531547#0" to="387385476#1" type="bike_bicycle"/>
    <trip id="bike1719" depart="8595.00" departLane="best" from="-32020609#1" to="59393478#2" type="bike_bicycle"/>
    <trip id="bike1723" depart="8615.00" departLane="best" from="529421168" to="385335099#0" type="bike_bicycle"/>
    <trip id="bike1726" depart="8630.00" departLane="best" from="8004023#0" to="10522141#3" type="bike_bicycle"/>
    <trip id="bike1733" depart="8665.00" departLane="best" from="7975426#0" to="-70545096#5" type="bike_bicycle"/>
    <trip id="bike1758" depart="8790.00" departLane="best" from="375722891#0" to="-291313154" type="bike_bicycle"/>
    <trip id="bike1759" depart="8795.00" departLane="best" from="-32020609#1" to="378048176#2" type="bike_bicycle"/>
    <trip id="bike1775" depart="8875.00" departLane="best" from="385335098#0" to="106531547#0" type="bike_bicycle"/>
    <trip id="bike1806" depart="9030.00" departLane="best" from="-8078963#7" to="299910129#2.39" type="bike_bicycle"/>
    <trip id="bike1813" depart="9065.00" departLane="best" from="42128193#1" to="106531547#0" type="bike_bicycle"/>
    <trip id="bike1819" depart="9095.00" departLane="best" from="-355309951#3" to="626854755#2" type="bike_bicycle"/>
    <trip id="bike1824" depart="9120.00" departLane="best" from="394077003#0" to="7975428#3" type="bike_bicycle"/>
    <trip id="bike1826" depart="9130.00" departLane="best" from="8074181#3" to="263432785#7.8" type="bike_bicycle"/>
    <trip id="bike1827" depart="9135.00" departLane="best" from="374169553#0" to="-291313154" type="bike_bicycle"/>
    <trip id="bike1835" depart="9175.00" departLane="best" from="10231578#3" to="387385476#1" type="bike_bicycle"/>
    <trip id="bike1844" depart="9220.00" departLane="best" from="385335098#0" to="387385476#1" type="bike_bicycle"/>
    <trip id="bike1851" depart="9255.00" departLane="best" from="107709364#1" to="125502275#1" type="bike_bicycle"/>
    <trip id="bike1856" depart="9280.00" departLane="best" from="-106531547#0" to="387385476#1" type="bike_bicycle"/>
    <trip id="bike1858" depart="9290.00" departLane="best" from="385335098#0" to="385335098#1" type="bike_bicycle"/>
    <trip id="bike1868" depart="9340.00" departLane="best" from="10231578#3" to="83723985#2" type="bike_bicycle"/>
    <trip id="bike1876" depart="9380.00" departLane="best" from="507114919#0" to="10522108#3" type="bike_bicycle"/>
    <trip id="bike1883" depart="9415.00" departLane="best" from="-106531547#0" to="387385476#1" type="bike_bicycle"/>
    <trip id="bike1885" depart="9425.00" departLane="best" from="385335098#0" to="51352411" type="bike_bicycle"/>
    <trip id="bike1889" depart="9445.00" departLane="best" from="231661249#2" to="-577566285" type="bike_bicycle"/>
    <trip id="bike1891" depart="9455.00" departLane="best" from="299910129#7.6" to="387385476#1" type="bike_bicycle"/>
    <trip id="bike1899" depart="9495.00" departLane="best" from="374169553#0" to="375722891#0" type="bike_bicycle"/>
    <trip id="bike1902" depart="9510.00" departLane="best" from="8004023#0" to="25624802#2" type="bike_bicycle"/>
    <trip id="bike1906" depart="9530.00" departLane="best" from="10231578#3" to="171266151#0" type="bike_bicycle"/>
    <trip id="bike1919" depart="9595.00" departLane="best" from="231661249#3" to="375727027#0" type="bike_bicycle"/>
    <trip id="bike1921" depart="9605.00" departLane="best" from="231661249#8.62" to="318774686" type="bike_bicycle"/>
    <trip id="bike1932" depart="9660.00" departLane="best" from="6244362" to="-538699600" type="bike_bicycle"/>
    <trip id="bike1969" depart="9845.00" departLane="best" from="-32020609#1" to="385335099#0" type="bike_bicycle"/>
    <trip id="bike1975" depart="9875.00" departLane="best" from="107709364#1" to="10522146" type="bike_bicycle"/>
    <trip id="bike1981" depart="9905.00" departLane="best" from="10231578#3" to="83723985#2" type="bike_bicycle"/>
    <trip id="bike1982" depart="9910.00" departLane="best" from="385335098#0" to="375727027#0" type="bike_bicycle"/>
    <trip id="bike2003" depart="10015.00" departLane="best" from="529421168" to="385335099#0" type="bike_bicycle"/>
    <trip id="bike2008" depart="10040.00" departLane="best" from="385335098#0" to="503119834#6" type="bike_bicycle"/>
    <trip id="bike2018" depart="10090.00" departLane="best" from="231661249#8.62" to="299910129#7.6" type="bike_bicycle"/>
    <trip id="bike2025" depart="10125.00" departLane="best" from="290601651#4" to="375722891#0" type="bike_bicycle"/>
    <trip id="bike2035" depart="10175.00" departLane="best" from="8004023#0" to="-291313154" type="bike_bicycle"/>
    <trip id="bike2041" depart="10205.00" departLane="best" from="385335098#0" to="355309951#0" type="bike_bicycle"/>
    <trip id="bike2059" depart="10295.00" departLane="best" from="385335098#0" to="106531547#0" type="bike_bicycle"/>
    <trip id="bike2060" depart="10300.00" departLane="best" from="7975434#0" to="375727027#0" type="bike_bicycle"/>
    <trip id="bike2072" depart="10360.00" departLane="best" from="-32020609#1" to="385335099#0" type="bike_bicycle"/>
    <trip id="bike2077" depart="10385.00" departLane="best" from="135155217#1" to="-577566285" type="bike_bicycle"/>
    <trip id="bike2081" depart="10405.00" departLane="best" from="626854755#0" to="231661249#1" type="bike_bicycle"/>
    <trip id="bike2139" depart="10695.00" departLane="best" from="10231578#3" to="559569229#0.143" type="bike_bicycle"/>
    <trip id="bike2152" depart="10760.00" departLane="best" from="-32020609#1" to="106531540#2.51" type="bike_bicycle"/>
</routes>
