<polygons>
<poly id="Feuerwehr3.0" color="0,255,59" layer="100" type="route" shape="3437.28,4435.56 3517.57,4370.29 3518.33,4366.36 3549.61,4341.91 3549.66,4341.87 3573.05,4320.77 3576.23,4314.28 3578.13,4303.79 3578.69,4301.07 3579.73,4295.98 3629.16,4159.08 3628.16,4154.52 3481.22,4099.73 3478.13,4098.56 3398.88,4072.18 3384.89,4066.5 3292.85,4032.11 3280.38,4027.66 3191.81,3995.44 3179.67,3992.63 3098.0,3960.31 3078.13,3966.45 3038.34,4039.8 3031.71,4054.34 3024.78,4069.81 3021.19,4077.45 3015.61,4089.88 3010.26,4100.9 3001.46,4118.66 2966.08,4229.93 2964.86,4246.77 2958.87,4293.26 2952.43,4335.63 2950.25,4356.47 2949.28,4372.38 2948.15,4384.19 2945.18,4403.05 2939.62,4443.96 2935.76,4472.63 2934.77,4478.08 2931.66,4490.81 2927.84,4510.98 2921.51,4546.76 2919.61,4555.96 2914.78,4577.96 2907.51,4611.41 2908.22,4623.16 2899.32,4654.43 2893.95,4671.3 2888.83,4686.41 2875.32,4713.89 2863.54,4721.08 2855.87,4736.09 2846.16,4754.89 2838.2,4767.94 2832.41,4782.98 2822.3,4799.54 2768.0,4881.6 2736.6,4914.86 2695.71,4950.99 2688.88,4954.22 2639.99,4986.77 2608.82,5004.54 2603.1,5011.32 2576.17,5025.43 2526.27,5044.17 2488.34,5057.54 2442.46,5069.53 2384.2,5083.61 2323.54,5094.87 2257.32,5104.51 2226.42,5107.25 2219.1,5105.12 2192.2,5110.73 2163.72,5114.84 2057.55,5133.55 2015.87,5142.46 1972.0,5152.07 1964.6,5157.5 1927.43,5170.82 1876.78,5190.61 1835.69,5207.11 1827.75,5207.25 1807.93,5217.58 1738.06,5257.0 1661.85,5310.67 1646.85,5324.69 1602.97,5361.21 1599.98,5368.42 1578.6,5391.2 1517.95,5464.8 1504.87,5482.65 1476.25,5521.73"/>
<poly id="KlinikumHol5.0" color="181,0,255" layer="100" type="route" shape="3134.9,3274.07 3090.13,3273.92 3081.35,3265.03 3087.1,2902.72 3080.99,2895.17 2987.49,2860.66 2965.84,2850.83 2951.8,2847.1 2790.6,2795.28"/>
<poly id="Johanniter3.0" color="87,0,255" layer="100" type="route" shape="2298.3,1669.11 2106.21,1463.04 2101.56,1463.38 2052.87,1512.06 2050.77,1520.76 2138.56,1612.85 2173.0,1648.42 2184.33,1657.81 2204.0,1678.25 2258.49,1736.27 2297.04,1820.85 2298.67,1833.05 2297.88,1841.82 2296.01,1849.83 2293.79,1856.21 2227.19,1951.54 2204.16,1985.21 2168.68,2039.23 2144.67,2078.24 2143.33,2080.1 2127.93,2101.98 2060.85,2213.0 2047.57,2234.39 2010.65,2292.73 2003.67,2297.78 1946.01,2389.08 1899.7,2460.33 1843.18,2545.51 1796.34,2615.86 1782.72,2636.74 1760.55,2672.11 1742.02,2703.74 1720.06,2745.21 1702.3,2782.37 1686.49,2820.12 1676.46,2849.31 1666.03,2885.4 1658.25,2922.16 1654.89,2944.84 1651.84,2972.75 1649.93,3006.87 1650.37,3041.67 1653.24,3076.74 1658.48,3113.17 1661.87,3129.92 1665.6,3146.7 1672.66,3172.17 1680.68,3196.9 1701.38,3246.22 1719.18,3281.52 1730.14,3301.8 1743.81,3323.51 1761.07,3349.33 1784.78,3382.19 1811.38,3415.33 1849.7,3462.2 1889.47,3506.88 1929.55,3549.78 1937.07,3553.64 1966.21,3590.75 1993.09,3625.04 2016.56,3655.32 2018.16,3663.36 2027.86,3679.92 2039.64,3702.73 2056.84,3738.23 2070.38,3769.71 2078.87,3793.13 2088.17,3821.66 2098.65,3863.76 2101.32,3874.7 2104.06,3890.16 2106.19,3904.8 2108.64,3925.38 2110.39,3950.41 2111.98,3973.48 2112.48,3992.79 2111.9,4017.37 2109.1,4059.68 2105.04,4099.9 2095.83,4163.58 2076.21,4289.55 2074.71,4307.53 2076.98,4315.8 2053.24,4477.67 2048.83,4485.11 2026.35,4617.41 2023.06,4639.92 1953.73,5114.01 1946.15,5188.27 1940.72,5271.27 1939.89,5312.82 1940.53,5354.65 1942.16,5407.6 1945.93,5460.86 1954.19,5536.34 1959.66,5568.5 1965.01,5595.62 1966.59,5598.05 1977.72,5650.17"/>
<poly id="KlinikumHol7.0" color="123,255,0" layer="100" type="route" shape="3134.9,3274.07 3090.13,3273.92 3081.35,3265.03 3087.1,2902.72 3088.88,2887.43 3118.0,2835.1 3126.59,2821.17 3127.68,2819.61 3150.55,2784.21 3151.61,2782.46 3186.69,2727.21 3188.61,2720.28 3190.75,2702.52 3190.72,2700.26 3194.57,2671.34 3195.94,2656.84 3195.41,2636.64 3186.63,2602.97 3183.0,2589.83 3142.73,2518.38 3135.95,2504.16 3127.7,2492.73 3119.91,2483.77 3050.17,2429.94 3039.52,2421.63 2989.81,2379.22 2979.9,2370.86 2930.01,2331.48 2918.49,2321.85 2899.14,2301.67 2908.59,2274.76 2915.3,2261.18 2916.33,2258.36 2926.7,2237.18 2944.06,2203.06 2963.78,2166.99 2983.32,2132.41 2998.84,2107.63 3004.92,2097.66 3007.87,2089.95 3013.52,2081.23 3028.49,2060.3 3031.28,2056.42 3035.73,2049.81 3042.46,2040.64 3055.95,2022.84 3085.6,1988.38 3099.48,1973.51 3107.57,1964.04 3114.61,1957.01 3161.05,1905.66 3188.99,1875.24 3221.72,1838.81"/>
<poly id="KlinikumHol5.1" color="233,255,0" layer="100" type="route" shape="3134.9,3274.07 3090.13,3273.92 3081.35,3265.03 3087.1,2902.72 3080.99,2895.17 2987.49,2860.66 2965.84,2850.83 2951.8,2847.1 2790.6,2795.28"/>
<poly id="KlinikumHol7.1" color="255,64,0" layer="100" type="route" shape="3134.9,3274.07 3090.13,3273.92 3081.35,3265.03 3087.1,2902.72 3088.88,2887.43 3118.0,2835.1 3126.59,2821.17 3127.68,2819.61 3150.55,2784.21 3151.61,2782.46 3186.69,2727.21 3188.61,2720.28 3190.75,2702.52 3190.72,2700.26 3194.57,2671.34 3195.94,2656.84 3195.41,2636.64 3186.63,2602.97 3183.0,2589.83 3142.73,2518.38 3135.95,2504.16 3127.7,2492.73 3119.91,2483.77 3050.17,2429.94 3039.52,2421.63 2989.81,2379.22 2979.9,2370.86 2930.01,2331.48 2918.49,2321.85 2899.14,2301.67 2908.59,2274.76 2915.3,2261.18 2916.33,2258.36 2926.7,2237.18 2944.06,2203.06 2963.78,2166.99 2983.32,2132.41 2998.84,2107.63 3004.92,2097.66 3007.87,2089.95 3013.52,2081.23 3028.49,2060.3 3031.28,2056.42 3035.73,2049.81 3042.46,2040.64 3055.95,2022.84 3085.6,1988.38 3099.48,1973.51 3107.57,1964.04 3114.61,1957.01 3161.05,1905.66 3188.99,1875.24 3221.72,1838.81"/>
<poly id="Klinikum5.0" color="252,0,255" layer="100" type="route" shape="2843.89,4213.35 2943.13,4232.05 2947.32,4225.23 2963.47,4160.74 2970.08,4141.01 2971.08,4132.72 2978.16,4115.47 2979.89,4111.8 2991.26,4091.75 3002.39,4068.64 3013.39,4040.87 3013.59,4040.43 3020.66,4024.65 3019.67,4014.18 3053.16,3952.91 3107.74,3935.66 3146.57,3951.0 3152.92,3956.7 3286.94,4009.65 3299.67,4013.96 3391.6,4048.52 3404.93,4053.94 3484.22,4080.27 3487.88,4081.76 3490.45,4082.7 3503.09,4087.37 3634.84,4136.6 3649.82,4141.74 3735.19,4172.64 3747.87,4177.17 3906.06,4233.73 3918.71,4238.23 3930.44,4242.37 3940.38,4244.22 3963.9,4239.07 4036.7,4247.03 4064.07,4238.0 4095.79,4170.58 4100.46,4161.02 4100.58,4160.81 4107.99,4147.59 4144.72,4154.61 4175.19,4180.69 4184.42,4188.69 4189.74,4192.79 4195.23,4195.56 4202.68,4198.29 4212.44,4201.08 4216.35,4201.53 4241.73,4205.17 4252.05,4206.13 4255.62,4206.01 4260.23,4203.55 4261.87,4192.07 4265.2,4167.62 4265.78,4163.32 4268.22,4147.96 4269.76,4138.84 4271.43,4129.14 4272.02,4124.86 4274.57,4107.95 4278.82,4071.92 4283.94,4034.57 4286.72,4004.35 4283.97,3982.39 4276.12,3957.07 4266.38,3926.41 4263.24,3924.82 4217.8,3940.14"/>
<poly id="Klinikum5.1" color="0,96,255" layer="100" type="route" shape="2843.89,4213.35 2943.13,4232.05 2947.32,4225.23 2963.47,4160.74 2970.08,4141.01 2971.08,4132.72 2978.16,4115.47 2979.89,4111.8 2991.26,4091.75 3002.39,4068.64 3013.39,4040.87 3013.59,4040.43 3020.66,4024.65 3019.67,4014.18 3053.16,3952.91 3107.74,3935.66 3146.57,3951.0 3152.92,3956.7 3286.94,4009.65 3299.67,4013.96 3391.6,4048.52 3404.93,4053.94 3484.22,4080.27 3487.88,4081.76 3490.45,4082.7 3503.09,4087.37 3634.84,4136.6 3649.82,4141.74 3735.19,4172.64 3747.87,4177.17 3906.06,4233.73 3918.71,4238.23 3930.44,4242.37 3940.38,4244.22 3963.9,4239.07 4036.7,4247.03 4064.07,4238.0 4095.79,4170.58 4100.46,4161.02 4100.58,4160.81 4107.99,4147.59 4144.72,4154.61 4175.19,4180.69 4184.42,4188.69 4189.74,4192.79 4195.23,4195.56 4202.68,4198.29 4212.44,4201.08 4216.35,4201.53 4241.73,4205.17 4252.05,4206.13 4255.62,4206.01 4260.23,4203.55 4261.87,4192.07 4265.2,4167.62 4265.78,4163.32 4268.22,4147.96 4269.76,4138.84 4271.43,4129.14 4272.02,4124.86 4274.57,4107.95 4278.82,4071.92 4283.94,4034.57 4286.72,4004.35 4283.97,3982.39 4276.12,3957.07 4266.38,3926.41 4263.24,3924.82 4217.8,3940.14"/>
<poly id="Feuerwehr4.0" color="0,255,174" layer="100" type="route" shape="3437.28,4435.56 3517.57,4370.29 3518.33,4366.36 3549.61,4341.91 3549.66,4341.87 3573.05,4320.77 3576.23,4314.28 3578.13,4303.79 3578.69,4301.07 3579.73,4295.98 3629.16,4159.08 3628.16,4154.52 3481.22,4099.73 3478.13,4098.56 3398.88,4072.18 3384.89,4066.5 3292.85,4032.11 3280.38,4027.66 3191.81,3995.44 3179.67,3992.63 3098.0,3960.31 3049.1,3941.5 3009.47,3925.38 3003.4,3919.12 2956.35,3900.25 2930.07,3889.83 2906.7,3882.0 2889.31,3874.44 2872.05,3867.31 2862.62,3863.2 2855.67,3859.18 2848.48,3854.57 2834.52,3843.07 2818.62,3829.66 2799.04,3814.28 2785.71,3803.37 2777.34,3796.65 2759.53,3778.41 2741.08,3766.99 2734.64,3760.2 2727.1,3756.51 2720.23,3749.52 2706.01,3735.43 2698.8,3731.26 2672.17,3704.46 2665.25,3683.05 2653.97,3667.79 2642.37,3641.44 2641.37,3638.08 2640.24,3633.1 2639.47,3629.41 2637.93,3621.36 2635.24,3606.49 2633.82,3592.49 2631.46,3579.16 2629.63,3571.46 2626.63,3554.1 2620.86,3519.62 2614.99,3486.31 2613.67,3477.35 2612.26,3468.07 2611.1,3458.85 2610.26,3449.45 2608.69,3429.01 2607.63,3422.05 2605.6,3410.65 2606.07,3398.16 2604.05,3392.68 2603.13,3386.13 2604.4,3367.16 2605.16,3358.45 2605.83,3351.79 2607.2,3339.96 2609.59,3326.34 2619.6,3289.4 2625.89,3260.54 2629.06,3253.13 2630.61,3245.35 2635.97,3221.96 2641.45,3195.87 2659.41,3111.14 2668.91,3067.18 2670.61,3057.34 2671.57,3048.12 2672.34,3038.05 2672.92,3035.4 2672.47,3028.38 2673.28,3021.05 2674.99,3014.11 2681.96,2992.11 2695.71,2961.28 2700.22,2950.16 2704.49,2939.88 2711.82,2922.07 2716.32,2915.3 2736.95,2864.42 2766.2,2792.4 2773.47,2774.27 2784.39,2746.97 2791.49,2728.16 2796.98,2712.62 2800.84,2700.8 2806.94,2680.76 2807.34,2673.14 2815.09,2640.15 2819.53,2622.81 2827.66,2599.16 2832.71,2567.67 2836.85,2546.36 2843.82,2510.78 2845.94,2500.36 2887.86,2339.96 2899.14,2301.67 2908.59,2274.76 2915.3,2261.18 2916.33,2258.36 2926.7,2237.18 2944.06,2203.06 2963.78,2166.99 2983.32,2132.41 2998.84,2107.63 3004.92,2097.66 3007.87,2089.95 3013.52,2081.23 3028.49,2060.3 3031.28,2056.42 3035.73,2049.81 3042.46,2040.64 3055.95,2022.84 3085.6,1988.38 3099.48,1973.51 3107.57,1964.04 3114.61,1957.01 3161.05,1905.66 3188.99,1875.24 3221.72,1838.81"/>
<poly id="Feuerwehr1.0" color="255,0,244" layer="100" type="route" shape="3437.28,4435.56 3517.57,4370.29 3518.33,4366.36 3549.61,4341.91 3549.66,4341.87 3573.05,4320.77 3576.23,4314.28 3578.13,4303.79 3578.69,4301.07 3579.73,4295.98 3629.16,4159.08 3628.16,4154.52 3481.22,4099.73 3478.13,4098.56 3398.88,4072.18 3384.89,4066.5 3292.85,4032.11 3280.38,4027.66 3191.81,3995.44 3179.67,3992.63 3098.0,3960.31 3078.13,3966.45 3038.34,4039.8 3031.71,4054.34 3024.78,4069.81 3021.19,4077.45 3015.61,4089.88 3010.26,4100.9 3001.46,4118.66 2966.08,4229.93 2964.86,4246.77 2958.87,4293.26 2952.43,4335.63 2950.25,4356.47 2949.28,4372.38 2948.15,4384.19 2945.18,4403.05 2939.62,4443.96 2935.76,4472.63 2934.77,4478.08 2931.66,4490.81 2927.84,4510.98 2921.51,4546.76 2919.61,4555.96 2921.76,4576.93 2922.53,4579.57 2925.61,4583.93 2929.77,4586.92 2940.51,4595.33 2940.06,4614.27 2939.94,4623.84 2941.8,4668.68 2943.18,4713.38 2943.41,4745.78 2943.12,4759.97 2944.85,4779.65 2951.75,4819.28 2951.98,4821.84 2953.35,4838.23 2953.34,4839.12 2952.41,4848.72 2941.02,4881.49 2933.48,4896.74 2912.29,4940.01 2902.1,4959.14 2887.39,4982.12 2875.42,5000.1 2872.67,5004.45 2856.67,5033.38 2845.89,5036.75 2807.92,5105.19 2807.78,5105.44 2766.03,5181.99"/>
<poly id="KlinikumHol6.0" color="77,0,255" layer="100" type="route" shape="3134.9,3274.07 3090.13,3273.92 3081.35,3265.03 3087.1,2902.72 3088.88,2887.43 3118.0,2835.1 3116.58,2828.76 3077.1,2809.34 3068.35,2805.05 3025.66,2785.49 3014.53,2780.57 2819.94,2718.04 2800.84,2700.8 2806.94,2680.76 2807.34,2673.14 2815.09,2640.15 2819.53,2622.81 2817.31,2620.3 2789.81,2624.26 2781.91,2625.41 2757.15,2629.07 2735.87,2633.12 2687.51,2644.32 2661.8,2648.98 2655.44,2649.13 2649.16,2648.69 2637.88,2647.35 2635.85,2646.33 2622.32,2640.86 2598.05,2633.62 2566.82,2620.9 2559.18,2618.45 2551.16,2616.62 2541.76,2615.09 2534.16,2612.58 2522.7,2597.48 2524.19,2592.07 2531.19,2565.49 2537.06,2542.2 2539.15,2529.82 2540.57,2518.22 2541.52,2506.38 2542.84,2472.02 2543.01,2434.32 2542.51,2431.05 2541.43,2428.21 2528.17,2394.37 2522.59,2381.18 2509.71,2349.86 2487.95,2310.29 2485.36,2303.17 2483.75,2296.19 2483.34,2289.33 2483.23,2280.56 2485.56,2270.81 2488.26,2261.2 2491.74,2252.18 2495.48,2244.59 2500.76,2235.75 2499.92,2231.52 2470.99,2209.93 2462.09,2203.98 2454.53,2199.47 2448.35,2196.64 2442.32,2194.24 2409.69,2182.87"/>
<poly id="Klinikum6.0" color="255,0,124" layer="100" type="route" shape="2843.89,4213.35 2943.13,4232.05 2947.32,4225.23 2963.47,4160.74 2970.08,4141.01 2971.08,4132.72 2978.16,4115.47 2979.89,4111.8 2991.26,4091.75 3002.39,4068.64 3013.39,4040.87 3013.59,4040.43 3020.66,4024.65 3019.67,4014.18 3053.16,3952.91 3107.74,3935.66 3146.57,3951.0 3152.92,3956.7 3286.94,4009.65 3299.67,4013.96 3391.6,4048.52 3404.93,4053.94 3484.22,4080.27 3487.88,4081.76 3490.45,4082.7 3503.09,4087.37 3634.84,4136.6 3649.82,4141.74 3735.19,4172.64 3747.87,4177.17 3906.06,4233.73 3918.71,4238.23 3930.44,4242.37 3940.38,4244.22 3963.9,4239.07 4036.7,4247.03 4111.92,4251.43 4152.98,4253.12 4162.58,4256.17 4249.05,4260.69 4285.71,4263.96 4354.4,4271.13 4366.59,4313.1 4367.21,4398.66 4367.51,4417.91 4368.75,4448.07 4371.56,4450.52 4458.63,4450.32"/>
<poly id="Klinikum0.0" color="0,255,177" layer="100" type="route" shape="2843.89,4213.35 2943.13,4232.05 2964.86,4246.77 2958.87,4293.26 2952.43,4335.63 2950.25,4356.47 2949.28,4372.38 2948.15,4384.19 2945.18,4403.05 2939.62,4443.96 2935.76,4472.63 2934.77,4478.08 2931.66,4490.81 2927.84,4510.98 2921.51,4546.76 2919.61,4555.96 2921.76,4576.93 2922.53,4579.57 2925.61,4583.93 2929.77,4586.92 2940.51,4595.33 2940.06,4614.27 2939.94,4623.84 2941.8,4668.68 2943.18,4713.38 2943.41,4745.78 2943.12,4759.97 2944.85,4779.65 2956.47,4808.31 2965.47,4809.83 2986.85,4811.68"/>
<poly id="Klinikum1.0" color="0,92,255" layer="100" type="route" shape="2843.89,4213.35 2943.13,4232.05 2964.86,4246.77 2958.87,4293.26 2952.43,4335.63 2950.25,4356.47 2949.28,4372.38 2948.15,4384.19 2945.18,4403.05 2939.62,4443.96 2935.76,4472.63 2934.77,4478.08 2931.66,4490.81 2927.84,4510.98 2921.51,4546.76 2919.61,4555.96 2914.78,4577.96 2907.51,4611.41 2908.22,4623.16 2899.32,4654.43 2893.95,4671.3 2888.83,4686.41 2875.32,4713.89 2863.54,4721.08 2855.87,4736.09 2828.87,4741.54 2813.0,4737.51 2790.29,4733.28 2779.31,4732.65 2758.45,4732.02 2721.41,4731.93 2714.3,4733.51 2702.81,4735.37 2682.99,4741.59"/>
<poly id="Johanniter0.0" color="255,0,64" layer="100" type="route" shape="2298.3,1669.11 2106.21,1463.04 2101.56,1463.38 2052.87,1512.06 2050.77,1520.76 2138.56,1612.85 2173.0,1648.42 2184.33,1657.81 2204.0,1678.25 2258.49,1736.27 2268.8,1741.71 2278.63,1741.36 2286.58,1738.77 2299.79,1728.16 2313.44,1715.46 2340.97,1687.39 2341.17,1687.18 2370.94,1656.23 2388.15,1637.4 2457.22,1550.65 2484.44,1519.63 2532.9,1451.32"/>
<poly id="Klinikum8.0" color="0,255,150" layer="100" type="route" shape="2843.89,4213.35 2943.13,4232.05 2964.86,4246.77 2958.87,4293.26 2952.43,4335.63 2950.25,4356.47 2949.28,4372.38 2948.15,4384.19 2945.18,4403.05 2939.62,4443.96 2935.76,4472.63 2934.77,4478.08 2931.66,4490.81 2927.84,4510.98 2921.51,4546.76 2919.61,4555.96 2914.78,4577.96 2907.51,4611.41 2908.22,4623.16 2899.32,4654.43 2893.95,4671.3 2888.83,4686.41 2875.32,4713.89 2863.54,4721.08 2855.87,4736.09 2846.16,4754.89 2838.2,4767.94 2832.41,4782.98 2822.3,4799.54 2768.0,4881.6 2736.6,4914.86 2695.71,4950.99 2688.88,4954.22 2639.99,4986.77 2608.82,5004.54 2603.1,5011.32 2576.17,5025.43 2526.27,5044.17 2488.34,5057.54 2442.46,5069.53 2384.2,5083.61 2323.54,5094.87 2257.32,5104.51 2226.42,5107.25 2219.1,5105.12 2192.2,5110.73 2163.72,5114.84 2057.55,5133.55 2015.87,5142.46 1972.0,5152.07 1964.6,5157.5 1927.43,5170.82 1876.78,5190.61 1835.69,5207.11 1827.75,5207.25 1807.93,5217.58 1738.06,5257.0 1661.85,5310.67 1646.85,5324.69 1602.97,5361.21 1599.98,5368.42 1578.6,5391.2 1517.95,5464.8 1504.87,5482.65 1476.25,5521.73"/>
<poly id="Johanniter1.0" color="72,0,255" layer="100" type="route" shape="2298.3,1669.11 2106.21,1463.04 2101.56,1463.38 2052.87,1512.06 2050.77,1520.76 2138.56,1612.85 2173.0,1648.42 2184.33,1657.81 2204.0,1678.25 2258.49,1736.27 2297.04,1820.85 2298.67,1833.05 2297.88,1841.82 2296.01,1849.83 2293.79,1856.21 2227.19,1951.54 2204.16,1985.21 2168.68,2039.23 2144.67,2078.24 2143.33,2080.1 2127.93,2101.98 2060.85,2213.0 2047.57,2234.39 2010.65,2292.73 2003.67,2297.78 1946.01,2389.08 1899.7,2460.33 1843.18,2545.51 1796.34,2615.86 1782.72,2636.74 1760.55,2672.11 1742.02,2703.74 1720.06,2745.21 1702.3,2782.37 1686.49,2820.12 1676.46,2849.31 1666.03,2885.4 1658.25,2922.16 1654.89,2944.84 1651.84,2972.75 1649.93,3006.87 1650.37,3041.67 1653.24,3076.74 1658.48,3113.17 1661.87,3129.92 1665.6,3146.7 1672.66,3172.17 1680.68,3196.9 1701.38,3246.22 1719.18,3281.52 1730.14,3301.8 1743.81,3323.51 1761.07,3349.33 1784.78,3382.19 1811.38,3415.33 1849.7,3462.2 1889.47,3506.88 1929.55,3549.78 1937.07,3553.64 1966.21,3590.75 1993.09,3625.04 2016.56,3655.32 2020.94,3661.65 2029.36,3675.32 2056.24,3717.76 2081.56,3759.71 2089.09,3771.8 2098.29,3784.98 2114.98,3823.5 2126.46,3851.16 2127.3,3853.68 2129.81,3861.83 2133.65,3869.64 2138.67,3877.95 2150.49,3881.82 2172.6,3879.07 2188.62,3877.48 2200.76,3876.01 2215.71,3874.62 2227.71,3872.62 2240.24,3868.45 2264.27,3855.74 2273.76,3847.03 2204.98,3773.89 2198.77,3760.32 2200.24,3748.34 2221.32,3720.63 2260.62,3655.4 2292.31,3602.14"/>
<poly id="Klinikum6.1" color="255,126,0" layer="100" type="route" shape="2843.89,4213.35 2943.13,4232.05 2947.32,4225.23 2963.47,4160.74 2970.08,4141.01 2971.08,4132.72 2978.16,4115.47 2979.89,4111.8 2991.26,4091.75 3002.39,4068.64 3013.39,4040.87 3013.59,4040.43 3020.66,4024.65 3019.67,4014.18 3053.16,3952.91 3107.74,3935.66 3146.57,3951.0 3152.92,3956.7 3286.94,4009.65 3299.67,4013.96 3391.6,4048.52 3404.93,4053.94 3484.22,4080.27 3487.88,4081.76 3490.45,4082.7 3503.09,4087.37 3634.84,4136.6 3649.82,4141.74 3735.19,4172.64 3747.87,4177.17 3906.06,4233.73 3918.71,4238.23 3930.44,4242.37 3940.38,4244.22 3963.9,4239.07 4036.7,4247.03 4111.92,4251.43 4152.98,4253.12 4162.58,4256.17 4249.05,4260.69 4285.71,4263.96 4354.4,4271.13 4366.59,4313.1 4367.21,4398.66 4367.51,4417.91 4368.75,4448.07 4371.56,4450.52 4458.63,4450.32"/>
<poly id="Feuerwehr7.0" color="0,130,255" layer="100" type="route" shape="3437.28,4435.56 3517.57,4370.29 3518.33,4366.36 3549.61,4341.91 3549.66,4341.87 3573.05,4320.77 3576.23,4314.28 3578.13,4303.79 3578.69,4301.07 3579.73,4295.98 3629.16,4159.08 3628.16,4154.52 3481.22,4099.73 3478.13,4098.56 3398.88,4072.18 3384.89,4066.5 3292.85,4032.11 3280.38,4027.66 3191.81,3995.44 3179.67,3992.63 3098.0,3960.31 3049.1,3941.5 3009.47,3925.38 3003.4,3919.12 2956.35,3900.25 2930.07,3889.83 2906.7,3882.0 2889.31,3874.44 2872.05,3867.31 2862.62,3863.2 2855.67,3859.18 2848.48,3854.57 2834.52,3843.07 2818.62,3829.66 2799.04,3814.28 2785.71,3803.37 2777.34,3796.65 2759.53,3778.41 2741.08,3766.99 2734.64,3760.2 2727.1,3756.51 2720.23,3749.52 2706.01,3735.43 2698.8,3731.26 2672.17,3704.46 2665.25,3683.05 2653.97,3667.79 2642.37,3641.44 2641.37,3638.08 2640.24,3633.1 2639.47,3629.41 2637.93,3621.36 2635.24,3606.49 2633.82,3592.49 2631.46,3579.16 2629.63,3571.46 2626.63,3554.1 2620.86,3519.62 2614.99,3486.31 2613.67,3477.35 2612.26,3468.07 2611.1,3458.85 2610.26,3449.45 2608.69,3429.01 2607.63,3422.05 2605.6,3410.65 2606.07,3398.16 2604.05,3392.68 2603.13,3386.13 2604.4,3367.16 2605.16,3358.45 2605.83,3351.79 2607.2,3339.96 2609.59,3326.34 2619.6,3289.4 2625.89,3260.54 2629.06,3253.13 2630.61,3245.35 2635.97,3221.96 2641.45,3195.87 2659.41,3111.14 2668.91,3067.18 2670.61,3057.34 2671.57,3048.12 2672.34,3038.05 2672.92,3035.4 2672.47,3028.38 2673.28,3021.05 2674.99,3014.11 2681.96,2992.11 2695.71,2961.28 2700.22,2950.16 2704.49,2939.88 2711.82,2922.07 2716.32,2915.3 2736.95,2864.42 2766.2,2792.4 2773.47,2774.27 2784.39,2746.97 2791.49,2728.16 2796.98,2712.62 2800.84,2700.8 2806.94,2680.76 2807.34,2673.14 2815.09,2640.15 2819.53,2622.81 2827.66,2599.16 2832.71,2567.67 2836.85,2546.36 2843.82,2510.78 2845.94,2500.36 2887.86,2339.96 2899.14,2301.67 2908.59,2274.76 2915.3,2261.18 2916.33,2258.36 2926.7,2237.18 2944.06,2203.06 2963.78,2166.99 2983.32,2132.41 2998.84,2107.63 3004.92,2097.66 3007.87,2089.95 3013.52,2081.23 3028.49,2060.3 3031.28,2056.42 3035.73,2049.81 3042.46,2040.64 3055.95,2022.84 3113.43,2015.52 3125.5,2021.78 3133.96,2025.7 3144.31,2030.83 3153.83,2034.89 3165.67,2040.34 3179.33,2045.59 3189.4,2046.98 3199.11,2050.49 3214.64,2055.53 3231.9,2061.48 3242.75,2065.32 3250.82,2068.46 3262.49,2075.36 3273.22,2080.78 3284.23,2087.13 3291.08,2089.4 3297.97,2091.68 3305.18,2093.79 3311.49,2095.44 3343.17,2103.37 3373.1,2109.97 3398.2,2114.33"/>
<poly id="Feuerwehr0.0" color="201,255,0" layer="100" type="route" shape="3437.28,4435.56 3517.57,4370.29 3518.33,4366.36 3549.61,4341.91 3549.66,4341.87 3573.05,4320.77 3586.27,4318.89 3593.74,4321.72 3628.54,4327.44 3656.5,4336.28 3670.88,4341.65 3693.28,4351.33 3710.03,4354.86 3723.97,4355.02 3746.81,4353.94 3775.6,4350.24 3796.33,4347.4 3817.53,4343.62 3836.04,4337.59 3847.16,4330.7 3859.98,4322.59 3879.6,4310.02 3905.28,4291.69 3925.09,4277.63 3934.11,4267.16 3963.9,4239.07 4036.7,4247.03 4065.46,4309.66 4060.02,4328.8 4043.03,4371.28 4040.33,4377.86 4031.27,4405.96 4018.42,4449.52 4014.09,4471.03 4008.99,4486.61 3991.51,4536.24 3983.81,4557.87 3943.18,4668.29 3938.07,4684.6 3875.44,4855.47 3869.68,4865.83 3868.61,4876.98 3861.66,4892.61 3854.86,4927.24 3855.89,5017.96 3862.19,5051.44 3872.09,5114.53 3879.68,5154.66 3882.02,5170.82 3884.87,5185.27 3889.6,5210.24 3891.81,5232.19 3898.63,5340.59"/>
<poly id="Klinikum1.1" color="27,255,0" layer="100" type="route" shape="2843.89,4213.35 2943.13,4232.05 2964.86,4246.77 2958.87,4293.26 2952.43,4335.63 2950.25,4356.47 2949.28,4372.38 2948.15,4384.19 2945.18,4403.05 2939.62,4443.96 2935.76,4472.63 2934.77,4478.08 2931.66,4490.81 2927.84,4510.98 2921.51,4546.76 2919.61,4555.96 2914.78,4577.96 2907.51,4611.41 2908.22,4623.16 2899.32,4654.43 2893.95,4671.3 2888.83,4686.41 2875.32,4713.89 2863.54,4721.08 2855.87,4736.09 2828.87,4741.54 2813.0,4737.51 2790.29,4733.28 2779.31,4732.65 2758.45,4732.02 2721.41,4731.93 2714.3,4733.51 2702.81,4735.37 2682.99,4741.59"/>
<poly id="Klinikum8.1" color="63,255,0" layer="100" type="route" shape="2843.89,4213.35 2943.13,4232.05 2964.86,4246.77 2958.87,4293.26 2952.43,4335.63 2950.25,4356.47 2949.28,4372.38 2948.15,4384.19 2945.18,4403.05 2939.62,4443.96 2935.76,4472.63 2934.77,4478.08 2931.66,4490.81 2927.84,4510.98 2921.51,4546.76 2919.61,4555.96 2914.78,4577.96 2907.51,4611.41 2908.22,4623.16 2899.32,4654.43 2893.95,4671.3 2888.83,4686.41 2875.32,4713.89 2863.54,4721.08 2855.87,4736.09 2846.16,4754.89 2838.2,4767.94 2832.41,4782.98 2822.3,4799.54 2768.0,4881.6 2736.6,4914.86 2695.71,4950.99 2688.88,4954.22 2639.99,4986.77 2608.82,5004.54 2603.1,5011.32 2576.17,5025.43 2526.27,5044.17 2488.34,5057.54 2442.46,5069.53 2384.2,5083.61 2323.54,5094.87 2257.32,5104.51 2226.42,5107.25 2219.1,5105.12 2192.2,5110.73 2163.72,5114.84 2057.55,5133.55 2015.87,5142.46 1972.0,5152.07 1964.6,5157.5 1927.43,5170.82 1876.78,5190.61 1835.69,5207.11 1827.75,5207.25 1807.93,5217.58 1738.06,5257.0 1661.85,5310.67 1646.85,5324.69 1602.97,5361.21 1599.98,5368.42 1578.6,5391.2 1517.95,5464.8 1504.87,5482.65 1476.25,5521.73"/>
<poly id="Klinikum2.0" color="0,255,164" layer="100" type="route" shape="2843.89,4213.35 2943.13,4232.05 2947.32,4225.23 2963.47,4160.74 2970.08,4141.01 2971.08,4132.72 2978.16,4115.47 2979.89,4111.8 3013.28,4109.86 3016.47,4115.72 3019.35,4126.04 3023.56,4140.35 3028.37,4157.45 3038.53,4164.52 3046.75,4168.61 3061.35,4174.07 3088.29,4184.11 3092.82,4185.8 3110.81,4190.81 3125.85,4196.53 3139.87,4203.37 3178.98,4215.58"/>
<poly id="KlinikumHol4.0" color="239,255,0" layer="100" type="route" shape="3134.9,3274.07 3090.13,3273.92 3084.64,3279.55 3088.15,3402.47 3082.98,3424.99 3077.58,3445.81 3024.23,3545.33 3009.88,3563.48 2994.55,3573.49 2978.66,3579.39 2960.5,3584.18 2937.01,3591.15 2898.22,3599.74 2886.1,3604.22 2866.92,3613.29 2750.46,3659.64 2739.5,3668.12 2732.93,3690.35 2727.42,3711.24 2726.53,3721.78 2757.33,3751.56 2773.33,3764.31 2793.88,3784.41 2818.85,3805.51 2844.28,3826.44 2866.23,3842.67 2874.56,3847.83 2883.66,3851.61 2897.78,3857.53 2917.79,3862.28 2932.99,3867.69 2937.04,3868.99 2964.51,3879.19 3059.49,3915.98 3107.74,3935.66 3146.57,3951.0 3152.92,3956.7 3286.94,4009.65 3299.67,4013.96 3391.6,4048.52 3404.93,4053.94 3484.22,4080.27 3487.88,4081.76 3490.45,4082.7 3503.09,4087.37 3634.84,4136.6 3649.82,4141.74 3735.19,4172.64 3747.87,4177.17 3906.06,4233.73 3918.71,4238.23 3930.44,4242.37 3940.38,4244.22 3963.9,4239.07 4036.7,4247.03 4111.92,4251.43 4152.98,4253.12 4162.58,4256.17 4249.05,4260.69 4285.71,4263.96 4354.4,4271.13 4366.59,4313.1 4367.21,4398.66 4367.51,4417.91 4368.75,4448.07 4371.56,4450.52 4458.63,4450.32"/>
<poly id="Feuerwehr7.1" color="216,0,255" layer="100" type="route" shape="3437.28,4435.56 3517.57,4370.29 3518.33,4366.36 3549.61,4341.91 3549.66,4341.87 3573.05,4320.77 3576.23,4314.28 3578.13,4303.79 3578.69,4301.07 3579.73,4295.98 3629.16,4159.08 3628.16,4154.52 3481.22,4099.73 3478.13,4098.56 3398.88,4072.18 3384.89,4066.5 3292.85,4032.11 3280.38,4027.66 3191.81,3995.44 3179.67,3992.63 3098.0,3960.31 3049.1,3941.5 3009.47,3925.38 3003.4,3919.12 2956.35,3900.25 2930.07,3889.83 2906.7,3882.0 2889.31,3874.44 2872.05,3867.31 2862.62,3863.2 2855.67,3859.18 2848.48,3854.57 2834.52,3843.07 2818.62,3829.66 2799.04,3814.28 2785.71,3803.37 2777.34,3796.65 2759.53,3778.41 2741.08,3766.99 2734.64,3760.2 2727.1,3756.51 2720.23,3749.52 2706.01,3735.43 2698.8,3731.26 2672.17,3704.46 2665.25,3683.05 2653.97,3667.79 2642.37,3641.44 2641.37,3638.08 2640.24,3633.1 2639.47,3629.41 2637.93,3621.36 2635.24,3606.49 2633.82,3592.49 2631.46,3579.16 2629.63,3571.46 2626.63,3554.1 2620.86,3519.62 2614.99,3486.31 2613.67,3477.35 2612.26,3468.07 2611.1,3458.85 2610.26,3449.45 2608.69,3429.01 2607.63,3422.05 2605.6,3410.65 2606.07,3398.16 2604.05,3392.68 2603.13,3386.13 2604.4,3367.16 2605.16,3358.45 2605.83,3351.79 2607.2,3339.96 2609.59,3326.34 2619.6,3289.4 2625.89,3260.54 2629.06,3253.13 2630.61,3245.35 2635.97,3221.96 2641.45,3195.87 2659.41,3111.14 2668.91,3067.18 2670.61,3057.34 2671.57,3048.12 2672.34,3038.05 2672.92,3035.4 2672.47,3028.38 2673.28,3021.05 2674.99,3014.11 2681.96,2992.11 2695.71,2961.28 2700.22,2950.16 2704.49,2939.88 2711.82,2922.07 2716.32,2915.3 2736.95,2864.42 2766.2,2792.4 2773.47,2774.27 2784.39,2746.97 2791.49,2728.16 2796.98,2712.62 2800.84,2700.8 2806.94,2680.76 2807.34,2673.14 2815.09,2640.15 2819.53,2622.81 2827.66,2599.16 2832.71,2567.67 2836.85,2546.36 2843.82,2510.78 2845.94,2500.36 2887.86,2339.96 2899.14,2301.67 2908.59,2274.76 2915.3,2261.18 2916.33,2258.36 2926.7,2237.18 2944.06,2203.06 2963.78,2166.99 2983.32,2132.41 2998.84,2107.63 3004.92,2097.66 3007.87,2089.95 3013.52,2081.23 3028.49,2060.3 3031.28,2056.42 3035.73,2049.81 3042.46,2040.64 3055.95,2022.84 3113.43,2015.52 3125.5,2021.78 3133.96,2025.7 3144.31,2030.83 3153.83,2034.89 3165.67,2040.34 3179.33,2045.59 3189.4,2046.98 3199.11,2050.49 3214.64,2055.53 3231.9,2061.48 3242.75,2065.32 3250.82,2068.46 3262.49,2075.36 3273.22,2080.78 3284.23,2087.13 3291.08,2089.4 3297.97,2091.68 3305.18,2093.79 3311.49,2095.44 3343.17,2103.37 3373.1,2109.97 3398.2,2114.33"/>
<poly id="KlinikumHol2.0" color="252,255,0" layer="100" type="route" shape="3134.9,3274.07 3090.13,3273.92 3084.64,3279.55 3088.15,3402.47 3082.98,3424.99 3077.58,3445.81 3024.23,3545.33 3009.88,3563.48 2994.55,3573.49 2978.66,3579.39 2960.5,3584.18 2937.01,3591.15 2898.22,3599.74 2886.1,3604.22 2866.92,3613.29 2750.46,3659.64 2739.5,3668.12 2732.93,3690.35 2727.42,3711.24 2726.53,3721.78 2757.33,3751.56 2773.33,3764.31 2793.88,3784.41 2818.85,3805.51 2844.28,3826.44 2866.23,3842.67 2874.56,3847.83 2883.66,3851.61 2897.78,3857.53 2917.79,3862.28 2932.99,3867.69 2937.04,3868.99 2964.51,3879.19 3059.49,3915.98 3107.74,3935.66 3146.57,3951.0 3152.92,3956.7 3286.94,4009.65 3299.67,4013.96 3391.6,4048.52 3404.93,4053.94 3484.22,4080.27 3487.88,4081.76 3490.45,4082.7 3503.09,4087.37 3634.84,4136.6 3649.82,4141.74 3735.19,4172.64 3738.98,4170.28 3745.49,4156.83 3750.47,4146.72 3765.23,4131.69 3790.51,4115.3 3813.9,4099.6 3832.56,4090.2 3910.03,4045.05 3926.5,4032.52 3946.49,4010.89"/>
<poly id="Feuerwehr8.0" color="255,0,202" layer="100" type="route" shape="3437.28,4435.56 3517.57,4370.29 3518.33,4366.36 3549.61,4341.91 3549.66,4341.87 3573.05,4320.77 3576.23,4314.28 3578.13,4303.79 3578.69,4301.07 3579.73,4295.98 3629.16,4159.08 3628.16,4154.52 3481.22,4099.73 3478.13,4098.56 3398.88,4072.18 3384.89,4066.5 3292.85,4032.11 3280.38,4027.66 3191.81,3995.44 3179.67,3992.63 3098.0,3960.31 3049.1,3941.5 3009.47,3925.38 3003.4,3919.12 2956.35,3900.25 2930.07,3889.83 2906.7,3882.0 2889.31,3874.44 2872.05,3867.31 2862.62,3863.2 2855.67,3859.18 2848.48,3854.57 2834.52,3843.07 2818.62,3829.66 2799.04,3814.28 2785.71,3803.37 2777.34,3796.65 2759.53,3778.41 2741.08,3766.99 2734.64,3760.2 2727.1,3756.51 2720.23,3749.52 2706.01,3735.43 2698.8,3731.26 2672.17,3704.46 2665.25,3683.05 2653.97,3667.79 2642.37,3641.44 2641.37,3638.08 2640.24,3633.1 2639.47,3629.41 2637.93,3621.36 2635.24,3606.49 2633.82,3592.49 2631.46,3579.16 2629.63,3571.46 2626.63,3554.1 2620.86,3519.62 2614.99,3486.31 2613.67,3477.35 2612.26,3468.07 2611.1,3458.85 2610.26,3449.45 2608.69,3429.01 2607.63,3422.05 2605.6,3410.65 2606.07,3398.16 2604.05,3392.68 2603.13,3386.13 2604.4,3367.16 2605.16,3358.45 2605.83,3351.79 2607.2,3339.96 2609.59,3326.34 2619.6,3289.4 2625.89,3260.54 2629.06,3253.13 2630.61,3245.35 2635.97,3221.96 2641.45,3195.87 2659.41,3111.14 2668.91,3067.18 2670.61,3057.34 2671.57,3048.12 2672.34,3038.05 2672.92,3035.4 2672.47,3028.38 2673.28,3021.05 2674.99,3014.11 2681.96,2992.11 2719.21,2984.23 2742.93,2995.6 2795.86,3016.14 2809.54,3021.78 2883.08,3053.93 2896.77,3059.42 2955.35,3080.8"/>