<?xml version="1.0" encoding="UTF-8"?>
<!-- generated on 2018-11-26 17:38:22.698000 by $Id$
  options: -n sirene.net.xml <doubleminus>seed 42 <doubleminus>fringe-factor 1 -p 5 -r sirene.pedestrian.rou.xml -o sirene.pedestrian.trips.xml -e 10800 <doubleminus>vehicle-class pedestrian <doubleminus>persontrips <doubleminus>prefix ped <doubleminus>trip-attributes modes="public" <doubleminus>additional-files sirene_stops.add.xml,sirene_pt.rou.xml
-->
<routes xmlns:xsi="http://www.w3.org/2001/XMLSchema-instance" xsi:noNamespaceSchemaLocation="http://sumo.dlr.de/xsd/routes_file.xsd">
    <vType id="ped_pedestrian" vClass="pedestrian"/>
    <person id="ped0" depart="0.00" type="ped_pedestrian">
        <personTrip from="378166624#2" to="-106531538#3" modes="public"/>
    </person>
    <person id="ped1" depart="5.00" type="ped_pedestrian">
        <personTrip from="-9887590#2" to="-8074159#5" modes="public"/>
    </person>
    <person id="ped2" depart="10.00" type="ped_pedestrian">
        <personTrip from="5096637#3" to="4304445#0" modes="public"/>
    </person>
    <person id="ped3" depart="15.00" type="ped_pedestrian">
        <personTrip from="7975439#2" to="-30426838#3" modes="public"/>
    </person>
    <person id="ped4" depart="20.00" type="ped_pedestrian">
        <personTrip from="23713549#0" to="-106531538#8" modes="public"/>
    </person>
    <person id="ped5" depart="25.00" type="ped_pedestrian">
        <personTrip from="-8004023#0" to="30426838#1" modes="public"/>
    </person>
    <person id="ped6" depart="30.00" type="ped_pedestrian">
        <personTrip from="-106531538#3" to="-7975391#4" modes="public"/>
    </person>
    <person id="ped7" depart="35.00" type="ped_pedestrian">
        <personTrip from="385335098#1" to="319192876#0" modes="public"/>
    </person>
    <person id="ped8" depart="40.00" type="ped_pedestrian">
        <personTrip from="-8013583#1" to="37389514#0" modes="public"/>
    </person>
    <person id="ped9" depart="45.00" type="ped_pedestrian">
        <personTrip from="61996453#2.12" to="-103270688#7" modes="public"/>
    </person>
    <person id="ped10" depart="50.00" type="ped_pedestrian">
        <personTrip from="61890739#2" to="4729377#0" modes="public"/>
    </person>
    <person id="ped11" depart="55.00" type="ped_pedestrian">
        <personTrip from="106531538#8" to="-5096637#1" modes="public"/>
    </person>
    <person id="ped12" depart="60.00" type="ped_pedestrian">
        <personTrip from="8074412#0" to="106531538#2" modes="public"/>
    </person>
    <person id="ped13" depart="65.00" type="ped_pedestrian">
        <personTrip from="-32020609#1" to="-326114792#1" modes="public"/>
    </person>
    <person id="ped14" depart="70.00" type="ped_pedestrian">
        <personTrip from="7975381#1" to="374169552#0" modes="public"/>
    </person>
    <person id="ped15" depart="75.00" type="ped_pedestrian">
        <personTrip from="61996453#2" to="5083224#3" modes="public"/>
    </person>
    <person id="ped16" depart="80.00" type="ped_pedestrian">
        <personTrip from="318774678#1" to="9887589#4" modes="public"/>
    </person>
    <person id="ped17" depart="85.00" type="ped_pedestrian">
        <personTrip from="207177331#0" to="319192888" modes="public"/>
    </person>
    <person id="ped18" depart="90.00" type="ped_pedestrian">
        <personTrip from="68327840#2" to="375862676#2" modes="public"/>
    </person>
    <person id="ped19" depart="95.00" type="ped_pedestrian">
        <personTrip from="7975405#2" to="32905529#0" modes="public"/>
    </person>
    <person id="ped20" depart="100.00" type="ped_pedestrian">
        <personTrip from="484593099#1" to="-167920423#4" modes="public"/>
    </person>
    <person id="ped21" depart="105.00" type="ped_pedestrian">
        <personTrip from="-8074164#1" to="-gneE7" modes="public"/>
    </person>
    <person id="ped22" depart="110.00" type="ped_pedestrian">
        <personTrip from="-276159044" to="-8074188#3" modes="public"/>
    </person>
    <person id="ped23" depart="115.00" type="ped_pedestrian">
        <personTrip from="-336013553#3" to="-9887596#0" modes="public"/>
    </person>
    <person id="ped24" depart="120.00" type="ped_pedestrian">
        <personTrip from="378048182" to="156543655#0" modes="public"/>
    </person>
    <person id="ped25" depart="125.00" type="ped_pedestrian">
        <personTrip from="167920423#2" to="-7975408#0" modes="public"/>
    </person>
    <person id="ped26" depart="130.00" type="ped_pedestrian">
        <personTrip from="-8078963#7" to="8074204#0" modes="public"/>
    </person>
    <person id="ped27" depart="135.00" type="ped_pedestrian">
        <personTrip from="385335098#0" to="375722891#0" modes="public"/>
    </person>
    <person id="ped28" depart="140.00" type="ped_pedestrian">
        <personTrip from="-529421172#3" to="5083224#3" modes="public"/>
    </person>
    <person id="ped29" depart="145.00" type="ped_pedestrian">
        <personTrip from="-5140733#3" to="207441375#5" modes="public"/>
    </person>
    <person id="ped30" depart="150.00" type="ped_pedestrian">
        <personTrip from="9891028#0" to="38075402#0" modes="public"/>
    </person>
    <person id="ped31" depart="155.00" type="ped_pedestrian">
        <personTrip from="320858416" to="4314616#4" modes="public"/>
    </person>
    <person id="ped32" depart="160.00" type="ped_pedestrian">
        <personTrip from="7823653#0" to="529421167#0.294" modes="public"/>
    </person>
    <person id="ped33" depart="165.00" type="ped_pedestrian">
        <personTrip from="-8074173#4" to="-106531541#10" modes="public"/>
    </person>
    <person id="ped34" depart="170.00" type="ped_pedestrian">
        <personTrip from="10522141#3" to="-8078963#7" modes="public"/>
    </person>
    <person id="ped35" depart="175.00" type="ped_pedestrian">
        <personTrip from="-7975409#1" to="8074215#2" modes="public"/>
    </person>
    <person id="ped36" depart="180.00" type="ped_pedestrian">
        <personTrip from="7975418#1" to="10522141#3" modes="public"/>
    </person>
    <person id="ped37" depart="185.00" type="ped_pedestrian">
        <personTrip from="387385476#1" to="23048926#0" modes="public"/>
    </person>
    <person id="ped38" depart="190.00" type="ped_pedestrian">
        <personTrip from="8074181#2" to="27150096#0" modes="public"/>
    </person>
    <person id="ped39" depart="195.00" type="ped_pedestrian">
        <personTrip from="-8078962#6" to="-8074215#2" modes="public"/>
    </person>
    <person id="ped40" depart="200.00" type="ped_pedestrian">
        <personTrip from="325528580#1" to="-8074416#1" modes="public"/>
    </person>
    <person id="ped41" depart="205.00" type="ped_pedestrian">
        <personTrip from="355309951#0" to="8004023#0" modes="public"/>
    </person>
    <person id="ped42" depart="210.00" type="ped_pedestrian">
        <personTrip from="231661245#1" to="-8004023#0" modes="public"/>
    </person>
    <person id="ped43" depart="215.00" type="ped_pedestrian">
        <personTrip from="gneE7" to="30426842#1" modes="public"/>
    </person>
    <person id="ped44" depart="220.00" type="ped_pedestrian">
        <personTrip from="-32020609#0" to="-167920423#7" modes="public"/>
    </person>
    <person id="ped45" depart="225.00" type="ped_pedestrian">
        <personTrip from="-375862680#4" to="375862680#6" modes="public"/>
    </person>
    <person id="ped46" depart="230.00" type="ped_pedestrian">
        <personTrip from="59393478#0" to="23713549#0" modes="public"/>
    </person>
    <person id="ped47" depart="235.00" type="ped_pedestrian">
        <personTrip from="-23423492#0" to="217194754#2" modes="public"/>
    </person>
    <person id="ped48" depart="240.00" type="ped_pedestrian">
        <personTrip from="gneE6" to="31722496#1.197" modes="public"/>
    </person>
    <person id="ped49" depart="245.00" type="ped_pedestrian">
        <personTrip from="83723985#2" to="7975405#2" modes="public"/>
    </person>
    <person id="ped50" depart="250.00" type="ped_pedestrian">
        <personTrip from="-10517312#6" to="503119834#6" modes="public"/>
    </person>
    <person id="ped51" depart="255.00" type="ped_pedestrian">
        <personTrip from="4314516#5" to="318774678#3" modes="public"/>
    </person>
    <person id="ped52" depart="260.00" type="ped_pedestrian">
        <personTrip from="-8078963#7" to="38075402#0" modes="public"/>
    </person>
    <person id="ped53" depart="265.00" type="ped_pedestrian">
        <personTrip from="-375862680#7" to="24692541#2" modes="public"/>
    </person>
    <person id="ped54" depart="270.00" type="ped_pedestrian">
        <personTrip from="263432785#7" to="8074220#0" modes="public"/>
    </person>
    <person id="ped55" depart="275.00" type="ped_pedestrian">
        <personTrip from="7975418#1" to="-8074416#1" modes="public"/>
    </person>
    <person id="ped56" depart="280.00" type="ped_pedestrian">
        <personTrip from="30426811" to="-70545096#5" modes="public"/>
    </person>
    <person id="ped57" depart="285.00" type="ped_pedestrian">
        <personTrip from="8074174#1" to="7975409#0" modes="public"/>
    </person>
    <person id="ped58" depart="290.00" type="ped_pedestrian">
        <personTrip from="10237438#0" to="378166624#2" modes="public"/>
    </person>
    <person id="ped59" depart="295.00" type="ped_pedestrian">
        <personTrip from="375722891#0" to="-5083224#6" modes="public"/>
    </person>
    <person id="ped60" depart="300.00" type="ped_pedestrian">
        <personTrip from="5140764#4" to="318774678#6" modes="public"/>
    </person>
    <person id="ped61" depart="305.00" type="ped_pedestrian">
        <personTrip from="529421168" to="31722496#1.197" modes="public"/>
    </person>
    <person id="ped62" depart="310.00" type="ped_pedestrian">
        <personTrip from="-10237438#0" to="10522174#2" modes="public"/>
    </person>
    <person id="ped63" depart="315.00" type="ped_pedestrian">
        <personTrip from="-10526071#1" to="8074199#3" modes="public"/>
    </person>
    <person id="ped64" depart="320.00" type="ped_pedestrian">
        <personTrip from="7975424#2" to="68327844#0.48" modes="public"/>
    </person>
    <person id="ped65" depart="325.00" type="ped_pedestrian">
        <personTrip from="10517312#5" to="-218253720#1" modes="public"/>
    </person>
    <person id="ped66" depart="330.00" type="ped_pedestrian">
        <personTrip from="7975424#2" to="8074215#5" modes="public"/>
    </person>
    <person id="ped67" depart="335.00" type="ped_pedestrian">
        <personTrip from="-30426827" to="299910129#2" modes="public"/>
    </person>
    <person id="ped68" depart="340.00" type="ped_pedestrian">
        <personTrip from="-25270811#10" to="5140764#2" modes="public"/>
    </person>
    <person id="ped69" depart="345.00" type="ped_pedestrian">
        <personTrip from="5140765#1" to="-39536741#1" modes="public"/>
    </person>
    <person id="ped70" depart="350.00" type="ped_pedestrian">
        <personTrip from="290601651#0" to="319192876#4" modes="public"/>
    </person>
    <person id="ped71" depart="355.00" type="ped_pedestrian">
        <personTrip from="-8078962#6" to="7975409#3" modes="public"/>
    </person>
    <person id="ped72" depart="360.00" type="ped_pedestrian">
        <personTrip from="23713549#0" to="-7975409#1" modes="public"/>
    </person>
    <person id="ped73" depart="365.00" type="ped_pedestrian">
        <personTrip from="318774678#6" to="5083224#5" modes="public"/>
    </person>
    <person id="ped74" depart="370.00" type="ped_pedestrian">
        <personTrip from="-7975405#4" to="10522108#3" modes="public"/>
    </person>
    <person id="ped75" depart="375.00" type="ped_pedestrian">
        <personTrip from="gneE6" to="385335098#1" modes="public"/>
    </person>
    <person id="ped76" depart="380.00" type="ped_pedestrian">
        <personTrip from="24857827#1" to="314533295#0" modes="public"/>
    </person>
    <person id="ped77" depart="385.00" type="ped_pedestrian">
        <personTrip from="-38160532#1" to="-8074163#0" modes="public"/>
    </person>
    <person id="ped78" depart="390.00" type="ped_pedestrian">
        <personTrip from="106531538#4" to="37389514#0" modes="public"/>
    </person>
    <person id="ped79" depart="395.00" type="ped_pedestrian">
        <personTrip from="-8074174#0" to="-8004023#0" modes="public"/>
    </person>
    <person id="ped80" depart="400.00" type="ped_pedestrian">
        <personTrip from="-25270811#6" to="378048176#2" modes="public"/>
    </person>
    <person id="ped81" depart="405.00" type="ped_pedestrian">
        <personTrip from="-8074173#4" to="8074164#3" modes="public"/>
    </person>
    <person id="ped82" depart="410.00" type="ped_pedestrian">
        <personTrip from="7975394#1" to="-25270811#10" modes="public"/>
    </person>
    <person id="ped83" depart="415.00" type="ped_pedestrian">
        <personTrip from="-8074199#4" to="39458868#3" modes="public"/>
    </person>
    <person id="ped84" depart="420.00" type="ped_pedestrian">
        <personTrip from="-7975409#4" to="-4314516#4" modes="public"/>
    </person>
    <person id="ped85" depart="425.00" type="ped_pedestrian">
        <personTrip from="8074204#0" to="32755484#2" modes="public"/>
    </person>
    <person id="ped86" depart="430.00" type="ped_pedestrian">
        <personTrip from="290601649#2" to="531029811" modes="public"/>
    </person>
    <person id="ped87" depart="435.00" type="ped_pedestrian">
        <personTrip from="61996453#2" to="-7975383" modes="public"/>
    </person>
    <person id="ped88" depart="440.00" type="ped_pedestrian">
        <personTrip from="-326114792#1" to="24038685#7" modes="public"/>
    </person>
    <person id="ped89" depart="445.00" type="ped_pedestrian">
        <personTrip from="238863539#2" to="277665454#2" modes="public"/>
    </person>
    <person id="ped90" depart="450.00" type="ped_pedestrian">
        <personTrip from="5083224#3" to="42128193#1" modes="public"/>
    </person>
    <person id="ped91" depart="455.00" type="ped_pedestrian">
        <personTrip from="9887597" to="-33077282" modes="public"/>
    </person>
    <person id="ped92" depart="460.00" type="ped_pedestrian">
        <personTrip from="231661245#3" to="106531538#8" modes="public"/>
    </person>
    <person id="ped93" depart="465.00" type="ped_pedestrian">
        <personTrip from="7975405#2" to="-8074215#3" modes="public"/>
    </person>
    <person id="ped94" depart="470.00" type="ped_pedestrian">
        <personTrip from="-7975383" to="25584897#2" modes="public"/>
    </person>
    <person id="ped95" depart="475.00" type="ped_pedestrian">
        <personTrip from="23713549#0" to="-9887596#0" modes="public"/>
    </person>
    <person id="ped96" depart="480.00" type="ped_pedestrian">
        <personTrip from="-8074215#5" to="8074188#3" modes="public"/>
    </person>
    <person id="ped97" depart="485.00" type="ped_pedestrian">
        <personTrip from="25270811#7" to="7975405#2" modes="public"/>
    </person>
    <person id="ped98" depart="490.00" type="ped_pedestrian">
        <personTrip from="319192876#9" to="-217362175#1" modes="public"/>
    </person>
    <person id="ped99" depart="495.00" type="ped_pedestrian">
        <personTrip from="gneE9" to="70545096#5" modes="public"/>
    </person>
    <person id="ped100" depart="500.00" type="ped_pedestrian">
        <personTrip from="8105196" to="8074199#2" modes="public"/>
    </person>
    <person id="ped101" depart="505.00" type="ped_pedestrian">
        <personTrip from="7975388#0" to="-5140765#2" modes="public"/>
    </person>
    <person id="ped102" depart="510.00" type="ped_pedestrian">
        <personTrip from="299910129#2" to="-7975409#4" modes="public"/>
    </person>
    <person id="ped103" depart="515.00" type="ped_pedestrian">
        <personTrip from="231661245#2" to="-218253720#1" modes="public"/>
    </person>
    <person id="ped104" depart="520.00" type="ped_pedestrian">
        <personTrip from="207177331#0" to="9887598" modes="public"/>
    </person>
    <person id="ped105" depart="525.00" type="ped_pedestrian">
        <personTrip from="-8078962#6" to="531029811" modes="public"/>
    </person>
    <person id="ped106" depart="530.00" type="ped_pedestrian">
        <personTrip from="263432785#7.8" to="23713549#0" modes="public"/>
    </person>
    <person id="ped107" depart="535.00" type="ped_pedestrian">
        <personTrip from="8074412#0" to="gneE6" modes="public"/>
    </person>
    <person id="ped108" depart="540.00" type="ped_pedestrian">
        <personTrip from="320858416" to="501406799#0" modes="public"/>
    </person>
    <person id="ped109" depart="545.00" type="ped_pedestrian">
        <personTrip from="-5088355#4" to="10231580#1" modes="public"/>
    </person>
    <person id="ped110" depart="550.00" type="ped_pedestrian">
        <personTrip from="8105196" to="33364787" modes="public"/>
    </person>
    <person id="ped111" depart="555.00" type="ped_pedestrian">
        <personTrip from="318774686" to="5140346#2" modes="public"/>
    </person>
    <person id="ped112" depart="560.00" type="ped_pedestrian">
        <personTrip from="-218253719#3" to="348909761#0" modes="public"/>
    </person>
    <person id="ped113" depart="565.00" type="ped_pedestrian">
        <personTrip from="30426827" to="7975391#5" modes="public"/>
    </person>
    <person id="ped114" depart="570.00" type="ped_pedestrian">
        <personTrip from="-5134912#3" to="8074416#0" modes="public"/>
    </person>
    <person id="ped115" depart="575.00" type="ped_pedestrian">
        <personTrip from="-276159044" to="-7823653#6" modes="public"/>
    </person>
    <person id="ped116" depart="580.00" type="ped_pedestrian">
        <personTrip from="37390117#3" to="42137289#1" modes="public"/>
    </person>
    <person id="ped117" depart="585.00" type="ped_pedestrian">
        <personTrip from="-8074199#2" to="-38075402#2" modes="public"/>
    </person>
    <person id="ped118" depart="590.00" type="ped_pedestrian">
        <personTrip from="7975437#0" to="-8074215#2" modes="public"/>
    </person>
    <person id="ped119" depart="595.00" type="ped_pedestrian">
        <personTrip from="37390117#3" to="375862677#2" modes="public"/>
    </person>
    <person id="ped120" depart="600.00" type="ped_pedestrian">
        <personTrip from="23620034#0" to="348909761#0" modes="public"/>
    </person>
    <person id="ped121" depart="605.00" type="ped_pedestrian">
        <personTrip from="31722493#0" to="8074201#1" modes="public"/>
    </person>
    <person id="ped122" depart="610.00" type="ped_pedestrian">
        <personTrip from="-7975405#7" to="501406797" modes="public"/>
    </person>
    <person id="ped123" depart="615.00" type="ped_pedestrian">
        <personTrip from="-8074199#4" to="23048926#0" modes="public"/>
    </person>
    <person id="ped124" depart="620.00" type="ped_pedestrian">
        <personTrip from="413718443#1" to="103270688#0" modes="public"/>
    </person>
    <person id="ped125" depart="625.00" type="ped_pedestrian">
        <personTrip from="10522146" to="5140732" modes="public"/>
    </person>
    <person id="ped126" depart="630.00" type="ped_pedestrian">
        <personTrip from="-25270811#6" to="27150096#0" modes="public"/>
    </person>
    <person id="ped127" depart="635.00" type="ped_pedestrian">
        <personTrip from="gneE9" to="gneE6" modes="public"/>
    </person>
    <person id="ped128" depart="640.00" type="ped_pedestrian">
        <personTrip from="-25270811#7" to="-7975409#4" modes="public"/>
    </person>
    <person id="ped129" depart="645.00" type="ped_pedestrian">
        <personTrip from="-8078962#6" to="8074201#1" modes="public"/>
    </person>
    <person id="ped130" depart="650.00" type="ped_pedestrian">
        <personTrip from="7975425#0" to="7975424#2" modes="public"/>
    </person>
    <person id="ped131" depart="655.00" type="ped_pedestrian">
        <personTrip from="167286681#1" to="-5134912#3" modes="public"/>
    </person>
    <person id="ped132" depart="660.00" type="ped_pedestrian">
        <personTrip from="68327844#3" to="484593099#1" modes="public"/>
    </person>
    <person id="ped133" depart="665.00" type="ped_pedestrian">
        <personTrip from="375727027#0" to="9887599" modes="public"/>
    </person>
    <person id="ped134" depart="670.00" type="ped_pedestrian">
        <personTrip from="387385471#2" to="-103495995#0" modes="public"/>
    </person>
    <person id="ped135" depart="675.00" type="ped_pedestrian">
        <personTrip from="6244362" to="103270688#0" modes="public"/>
    </person>
    <person id="ped136" depart="680.00" type="ped_pedestrian">
        <personTrip from="394077003#0" to="8074208" modes="public"/>
    </person>
    <person id="ped137" depart="685.00" type="ped_pedestrian">
        <personTrip from="-4314516#7" to="-37852651" modes="public"/>
    </person>
    <person id="ped138" depart="690.00" type="ped_pedestrian">
        <personTrip from="-375862675#2" to="319192888" modes="public"/>
    </person>
    <person id="ped139" depart="695.00" type="ped_pedestrian">
        <personTrip from="-9887590#1" to="374169552#0" modes="public"/>
    </person>
    <person id="ped140" depart="700.00" type="ped_pedestrian">
        <personTrip from="501406798#0" to="-7975405#7" modes="public"/>
    </person>
    <person id="ped141" depart="705.00" type="ped_pedestrian">
        <personTrip from="378048182" to="-8074416#1" modes="public"/>
    </person>
    <person id="ped142" depart="710.00" type="ped_pedestrian">
        <personTrip from="299910129#3" to="8074164#3" modes="public"/>
    </person>
    <person id="ped143" depart="715.00" type="ped_pedestrian">
        <personTrip from="7972780#0" to="-32020609#1" modes="public"/>
    </person>
    <person id="ped144" depart="720.00" type="ped_pedestrian">
        <personTrip from="238863539#2" to="-9887590#3" modes="public"/>
    </person>
    <person id="ped145" depart="725.00" type="ped_pedestrian">
        <personTrip from="-103270688#4" to="526422259#0" modes="public"/>
    </person>
    <person id="ped146" depart="730.00" type="ped_pedestrian">
        <personTrip from="378048188#1" to="-8074412#2" modes="public"/>
    </person>
    <person id="ped147" depart="735.00" type="ped_pedestrian">
        <personTrip from="5134912#1" to="319192876#9" modes="public"/>
    </person>
    <person id="ped148" depart="740.00" type="ped_pedestrian">
        <personTrip from="24038685#0" to="-10517312#6" modes="public"/>
    </person>
    <person id="ped149" depart="745.00" type="ped_pedestrian">
        <personTrip from="-25270811#8" to="7975426#0" modes="public"/>
    </person>
    <person id="ped150" depart="750.00" type="ped_pedestrian">
        <personTrip from="8074164#0" to="319192876#0" modes="public"/>
    </person>
    <person id="ped151" depart="755.00" type="ped_pedestrian">
        <personTrip from="68327844#3" to="348909761#0" modes="public"/>
    </person>
    <person id="ped152" depart="760.00" type="ped_pedestrian">
        <personTrip from="-484593099#2" to="-39458868#3" modes="public"/>
    </person>
    <person id="ped153" depart="765.00" type="ped_pedestrian">
        <personTrip from="10517312#5" to="8013583#1" modes="public"/>
    </person>
    <person id="ped154" depart="770.00" type="ped_pedestrian">
        <personTrip from="59393481#0" to="7975405#2" modes="public"/>
    </person>
    <person id="ped155" depart="775.00" type="ped_pedestrian">
        <personTrip from="8013583#1" to="-7975408#0" modes="public"/>
    </person>
    <person id="ped156" depart="780.00" type="ped_pedestrian">
        <personTrip from="-8074215#5" to="-355309951#3" modes="public"/>
    </person>
    <person id="ped157" depart="785.00" type="ped_pedestrian">
        <personTrip from="529421168.93" to="7975428#1" modes="public"/>
    </person>
    <person id="ped158" depart="790.00" type="ped_pedestrian">
        <personTrip from="231661249#2" to="375862677#2" modes="public"/>
    </person>
    <person id="ped159" depart="795.00" type="ped_pedestrian">
        <personTrip from="-5088355#4" to="8074199#4" modes="public"/>
    </person>
    <person id="ped160" depart="800.00" type="ped_pedestrian">
        <personTrip from="7975407#0" to="9887590#2" modes="public"/>
    </person>
    <person id="ped161" depart="805.00" type="ped_pedestrian">
        <personTrip from="62089686#1" to="7975426#0" modes="public"/>
    </person>
    <person id="ped162" depart="810.00" type="ped_pedestrian">
        <personTrip from="-10529294#1" to="5096637#3" modes="public"/>
    </person>
    <person id="ped163" depart="815.00" type="ped_pedestrian">
        <personTrip from="10529294#1" to="8074199#4" modes="public"/>
    </person>
    <person id="ped164" depart="820.00" type="ped_pedestrian">
        <personTrip from="6144590#1" to="7975407#0" modes="public"/>
    </person>
    <person id="ped165" depart="825.00" type="ped_pedestrian">
        <personTrip from="62089686#1" to="-8078963#7" modes="public"/>
    </person>
    <person id="ped166" depart="830.00" type="ped_pedestrian">
        <personTrip from="559569229#0.143" to="-375862676#4" modes="public"/>
    </person>
    <person id="ped167" depart="835.00" type="ped_pedestrian">
        <personTrip from="7975409#3" to="7975394#1" modes="public"/>
    </person>
    <person id="ped168" depart="840.00" type="ped_pedestrian">
        <personTrip from="-8074159#5" to="6244362" modes="public"/>
    </person>
    <person id="ped169" depart="845.00" type="ped_pedestrian">
        <personTrip from="276159044" to="103495995#0" modes="public"/>
    </person>
    <person id="ped170" depart="850.00" type="ped_pedestrian">
        <personTrip from="59393481#0" to="-8074164#1" modes="public"/>
    </person>
    <person id="ped171" depart="855.00" type="ped_pedestrian">
        <personTrip from="-10529294#1" to="-7975388#0" modes="public"/>
    </person>
    <person id="ped172" depart="860.00" type="ped_pedestrian">
        <personTrip from="10526071#1" to="7975407#0" modes="public"/>
    </person>
    <person id="ped173" depart="865.00" type="ped_pedestrian">
        <personTrip from="8078963#2" to="-9887596#0" modes="public"/>
    </person>
    <person id="ped174" depart="870.00" type="ped_pedestrian">
        <personTrip from="38075402#0" to="231661245#1" modes="public"/>
    </person>
    <person id="ped175" depart="875.00" type="ped_pedestrian">
        <personTrip from="9887596#1" to="318774678#1" modes="public"/>
    </person>
    <person id="ped176" depart="880.00" type="ped_pedestrian">
        <personTrip from="8074208" to="-37852651" modes="public"/>
    </person>
    <person id="ped177" depart="885.00" type="ped_pedestrian">
        <personTrip from="83723985#2" to="-70545096#5" modes="public"/>
    </person>
    <person id="ped178" depart="890.00" type="ped_pedestrian">
        <personTrip from="8074420#0" to="-8078962#6" modes="public"/>
    </person>
    <person id="ped179" depart="895.00" type="ped_pedestrian">
        <personTrip from="-375862676#4" to="24692541#2" modes="public"/>
    </person>
    <person id="ped180" depart="900.00" type="ped_pedestrian">
        <personTrip from="5083224#3" to="10522141#0" modes="public"/>
    </person>
    <person id="ped181" depart="905.00" type="ped_pedestrian">
        <personTrip from="374169553#0" to="306488581" modes="public"/>
    </person>
    <person id="ped182" depart="910.00" type="ped_pedestrian">
        <personTrip from="218253717#0" to="32755712#0" modes="public"/>
    </person>
    <person id="ped183" depart="915.00" type="ped_pedestrian">
        <personTrip from="-8074215#8" to="484594390#1" modes="public"/>
    </person>
    <person id="ped184" depart="920.00" type="ped_pedestrian">
        <personTrip from="-10237438#0" to="8074199#2" modes="public"/>
    </person>
    <person id="ped185" depart="925.00" type="ped_pedestrian">
        <personTrip from="318774678#6" to="501406799#0" modes="public"/>
    </person>
    <person id="ped186" depart="930.00" type="ped_pedestrian">
        <personTrip from="51352411" to="413718443#1" modes="public"/>
    </person>
    <person id="ped187" depart="935.00" type="ped_pedestrian">
        <personTrip from="156543655#0" to="-25270811#10" modes="public"/>
    </person>
    <person id="ped188" depart="940.00" type="ped_pedestrian">
        <personTrip from="394077003#0" to="10529294#0" modes="public"/>
    </person>
    <person id="ped189" depart="945.00" type="ped_pedestrian">
        <personTrip from="10522141#0" to="7975381#1" modes="public"/>
    </person>
    <person id="ped190" depart="950.00" type="ped_pedestrian">
        <personTrip from="501406799#0" to="103270688#0" modes="public"/>
    </person>
    <person id="ped191" depart="955.00" type="ped_pedestrian">
        <personTrip from="10522106" to="231661249#3" modes="public"/>
    </person>
    <person id="ped192" depart="960.00" type="ped_pedestrian">
        <personTrip from="231661245#3" to="10231580#1" modes="public"/>
    </person>
    <person id="ped193" depart="965.00" type="ped_pedestrian">
        <personTrip from="-39458868#3" to="23620034#0.48" modes="public"/>
    </person>
    <person id="ped194" depart="970.00" type="ped_pedestrian">
        <personTrip from="8074208" to="4304445#0" modes="public"/>
    </person>
    <person id="ped195" depart="975.00" type="ped_pedestrian">
        <personTrip from="8074164#0" to="375862675#2" modes="public"/>
    </person>
    <person id="ped196" depart="980.00" type="ped_pedestrian">
        <personTrip from="103270688#5" to="319192876#4" modes="public"/>
    </person>
    <person id="ped197" depart="985.00" type="ped_pedestrian">
        <personTrip from="-10237438#0" to="-gneE5" modes="public"/>
    </person>
    <person id="ped198" depart="990.00" type="ped_pedestrian">
        <personTrip from="24038685#4" to="33364787" modes="public"/>
    </person>