<?xml version="1.0" encoding="UTF-8"?>

<!-- generated on 11/26/18 17:38:23 by Eclipse SUMO duarouter Version 1.0.1
<configuration xmlns:xsi="http://www.w3.org/2001/XMLSchema-instance" xsi:noNamespaceSchemaLocation="http://sumo.dlr.de/xsd/duarouterConfiguration.xsd">

    <input>
        <net-file value="sirene.net.xml"/>
        <additional-files value="sirene_stops.add.xml,sirene_pt.rou.xml"/>
        <route-files value="sirene.pedestrian.trips.xml"/>
    </input>

    <output>
        <output-file value="sirene.pedestrian.rou.xml"/>
        <alternatives-output value="sirene.pedestrian.rou.alt.xml"/>
    </output>

    <time>
        <begin value="0"/>
        <end value="10800.0"/>
    </time>

    <report>
        <no-warnings value="true"/>
        <ignore-errors value="true"/>
        <no-step-log value="true"/>
    </report>

</configuration>
-->

<routes xmlns:xsi="http://www.w3.org/2001/XMLSchema-instance" xsi:noNamespaceSchemaLocation="http://sumo.dlr.de/xsd/routes_file.xsd">
    <vType id="ped_pedestrian" vClass="pedestrian"/>
    <person id="ped0" type="ped_pedestrian" depart="0.00">
        <walk edges="378166624#2 83723985#2" busStop="251044916"/> <!-- Amalienplatz Weißes Ross -->
        <walk edges="83723985#2 48861560#2" busStop="2708626053"/> <!-- Amalienplatz Weißes Ross -->
        <ride busStop="367891393" lines="419:0" intended="pt_bus_419:0.0" depart="404.00"/> <!-- Maienstraße -->
        <walk edges="106531540#2 -106531538#3"/>
    </person>
    <person id="ped1" type="ped_pedestrian" depart="5.00">
        <walk edges="-9887590#2 531029811 -167920423#7 39458868#3 39458868#0 -106531547#0" busStop="-822623518"/> <!-- Goslarsche Straße -->
        <ride busStop="4451891810" lines="418:1" intended="pt_bus_418:1.0" depart="548.00"/> <!-- Pfingststraße -->
        <walk edges="8074215#8 -8074159#5"/>
    </person>
    <person id="ped2" type="ped_pedestrian" depart="10.00">
        <walk edges="5096637#3 5139388#3 318774686" busStop="3887568676"/> <!-- Hamburger Straße (Steig D) -->
        <walk edges="6144590#1 318774677#0 318774678#3 318774678#6 336013553#2 -336013553#3 4304445#0"/>
    </person>
    <person id="ped3" type="ped_pedestrian" depart="15.00">
        <walk edges="7975439#2 7975437#0 25624802#2 31722493#0" busStop="337767290"/> <!-- Rudolfplatz -->
        <walk edges="31722493#0 375722891#0 290601651#4 290601651#0 48861560#3 48861560#2" busStop="2708626053"/> <!-- Amalienplatz Weißes Ross -->
        <walk edges="48861560#2 374169553#0 374169548#0 374169546#1 374169546#7" busStop="2304877704"/> <!-- Klinikum Celler Straße -->
        <walk edges="374169546#7 374169546#9 10522108#3 30426790#0 30426827 -30426827 -30426838#4 -30426838#3"/>
    </person>
    <person id="ped4" type="ped_pedestrian" depart="20.00">
        <walk edges="23713549#0 276159045#0 -238863539#3 462507193" busStop="4578931503"/> <!-- Maschplatz -->
        <ride busStop="337767290" lines="433:1" intended="pt_bus_433:1.0" depart="418.00"/> <!-- Rudolfplatz -->
        <walk edges="31722493#0 25624802#2 7975437#0 7975439#2" busStop="337766463"/> <!-- Rudolfplatz -->
        <walk edges="7975439#2 484593099#1 -484593099#2 31722496#1 31722496#1.197 31722496#6" busStop="367891514"/> <!-- Kälberwiese -->
        <ride busStop="367891393" lines="419:0" intended="pt_bus_419:0.1" depart="1185.00"/> <!-- Maienstraße -->
        <walk edges="106531540#2 -106531538#3 -106531538#7 -106531538#8"/>
    </person>
    <person id="ped5" type="ped_pedestrian" depart="25.00">
        <walk edges="-8004023#0 507114919#0" busStop="3239586703"/> <!-- Ludwigstraße -->
        <ride busStop="3239587396" lines="1:1" intended="pt_tram_1:1.0" depart="177.00"/> <!-- Hamburger Straße -->
        <walk edges="5139388#3 318774686" busStop="3887568676"/> <!-- Hamburger Straße (Steig D) -->
        <ride busStop="2708626053" lines="433:1" intended="pt_bus_433:1.0" depart="339.00"/> <!-- Amalienplatz Weißes Ross -->
        <walk edges="48861560#2 374169553#0 374169548#0 374169546#1 374169546#7" busStop="2304877704"/> <!-- Klinikum Celler Straße -->
        <walk edges="374169546#7 374169546#9 10522108#3 30426790#0 30426827 -30426827 -30426838#4 -30426838#3" busStop="-2304877707"/> <!-- Varrentrappstraße -->
        <walk edges="-30426838#3 30426838#1"/>
    </person>
    <person id="ped6" type="ped_pedestrian" depart="30.00">
        <walk edges="-106531538#3 59393478#2 59393478#0 31722496#6" busStop="367891514"/> <!-- Kälberwiese -->
        <walk edges="31722496#6 231661249#8" busStop="367891520"/> <!-- Kälberwiese -->
        <ride busStop="337769798" lines="422:1" intended="pt_bus_422:1.0" depart="495.00"/> <!-- Rudolfplatz -->
        <walk edges="624411668#2 31722494#3 31722493#0" busStop="337767290"/> <!-- Rudolfplatz -->
        <walk edges="31722493#0 375722891#0 290601651#4 7975393#2 7975392#1 -7975391#4"/>
    </person>
    <person id="ped7" type="ped_pedestrian" depart="35.00">
        <walk edges="385335098#1 314533294#0 32905529#0 68327840#2" busStop="80131267"/> <!-- Johannes-Selenka-Platz -->
        <ride busStop="3794742894" lines="443:0" intended="pt_bus_443:0.0" depart="693.00"/> <!-- Madamenweg -->
        <ride busStop="251044906" lines="429:0" intended="pt_bus_429:0.1" depart="962.00"/> <!-- Amalienplatz Weißes Ross -->
        <walk edges="299910129#2 7975424#2" busStop="4089838969"/>
        <walk edges="7975424#2 374169546#1 374169546#7" busStop="2304877704"/> <!-- Klinikum Celler Straße -->
        <walk edges="374169546#7 319192876#3 319192876#0"/>
    </person>
    <person id="ped8" type="ped_pedestrian" depart="40.00">
        <walk edges="-8013583#1 -4314616#3 37389514#0"/>
    </person>
    <person id="ped9" type="ped_pedestrian" depart="45.00">
        <walk edges="61996453#2.12 61996453#2 103270688#7 -103270688#7"/>
    </person>
    <person id="ped11" type="ped_pedestrian" depart="55.00">
        <walk edges="106531538#8 106531538#4 106531538#2 231661249#1" busStop="367891451"/> <!-- Maienstraße -->
        <ride busStop="337769798" lines="422:1" intended="pt_bus_422:1.0" depart="366.00"/> <!-- Rudolfplatz -->
        <walk edges="624411668#2 48894048" busStop="337770114"/> <!-- Rudolfplatz -->
        <ride busStop="5509491267" lines="429:0" intended="pt_bus_429:0.0" depart="713.00"/> <!-- Hamburger Straße -->
        <walk edges="51352411 5139386#1 -33077282 -5096637#1"/>
    </person>
    <person id="ped12" type="ped_pedestrian" depart="60.00">
        <walk edges="8074412#0 -25270811#10 7975424#2" busStop="4089838969"/>
        <walk edges="7975424#2 48861560#2" busStop="2708626053"/> <!-- Amalienplatz Weißes Ross -->
        <ride busStop="367891393" lines="419:0" intended="pt_bus_419:0.0" depart="404.00"/> <!-- Maienstraße -->
        <walk edges="106531540#2 106531538#2"/>
    </person>
    <person id="ped13" type="ped_pedestrian" depart="65.00">
        <walk edges="-32020609#1" busStop="-4319427728"/> <!-- Luftstraße -->
        <ride busStop="337770114" lines="450:1" intended="pt_bus_450:1.0" depart="364.00"/> <!-- Rudolfplatz -->
        <ride busStop="5509491267" lines="429:0" intended="pt_bus_429:0.0" depart="713.00"/> <!-- Hamburger Straße -->
        <walk edges="51352411 318774686" busStop="3887568676"/> <!-- Hamburger Straße (Steig D) -->
        <walk edges="6144590#1 4314616#3 4314616#4 276159045#0 276159044 -326114792#1"/>
    </person>
    <person id="ped14" type="ped_pedestrian" depart="70.00">
        <walk edges="7975381#1 375862676#2 299910129#7 462507193" busStop="4578931503"/> <!-- Maschplatz -->
        <ride busStop="2708626053" lines="433:1" intended="pt_bus_433:1.0" depart="418.00"/> <!-- Amalienplatz Weißes Ross -->
        <walk edges="48861560#2 374169553#0 374169548#0 374169552#0"/>
    </person>
    <person id="ped15" type="ped_pedestrian" depart="75.00">
        <walk edges="61996453#2 61996453#2.12 171266151#0 32905529#0 68327840#2" busStop="80131267"/> <!-- Johannes-Selenka-Platz -->
        <ride busStop="3794742894" lines="443:0" intended="pt_bus_443:0.0" depart="693.00"/> <!-- Madamenweg -->
        <ride busStop="5509491267" lines="429:0" intended="pt_bus_429:0.1" depart="962.00"/> <!-- Hamburger Straße -->
        <walk edges="51352411 318774686 375862677#7 -375862680#4 7820081#0 -5083224#3 5083224#3"/>
    </person>
    <person id="ped16" type="ped_pedestrian" depart="80.00">
        <walk edges="318774678#1 6144590#1" busStop="3887568676"/> <!-- Hamburger Straße (Steig D) -->
        <ride busStop="5624015120" lines="419:0" intended="pt_bus_419:0.0" depart="247.00"/> <!-- Johannes-Selenka-Platz -->
        <walk edges="59393481#0 167920423#2 -167920423#4 -167920423#7 39458868#3 9887589#4"/>
    </person>
    <person id="ped17" type="ped_pedestrian" depart="85.00">
        <walk edges="207177331#0 -207177331#0 -39536741#1 292107968#0 306488581 306488582 6144590#1" busStop="3887568676"/> <!-- Hamburger Straße (Steig D) -->
        <ride busStop="2708626053" lines="419:0" intended="pt_bus_419:0.1" depart="847.00"/> <!-- Amalienplatz Weißes Ross -->
        <walk edges="48861560#2 374169553#0 374169548#0 374169546#1 374169546#7" busStop="2304877704"/> <!-- Klinikum Celler Straße -->
        <ride busStop="-2304877707" lines="416:1" intended="pt_bus_416:1.1" depart="1504.00"/> <!-- Varrentrappstraße -->
        <walk edges="-30426838#3 30426838#1 8074420#0 319192888"/>
    </person>
    <person id="ped18" type="ped_pedestrian" depart="90.00">
        <walk edges="68327840#2" busStop="80131267"/> <!-- Johannes-Selenka-Platz -->
        <ride busStop="251044906" lines="429:0" intended="pt_bus_429:0.0" depart="298.00"/> <!-- Amalienplatz Weißes Ross -->
        <walk edges="299910129#2 299910129#2.39 375862675#2 -483465545#3 7976291#0 299910129#4 299910129#7 375862676#2"/>
    </person>
    <person id="ped19" type="ped_pedestrian" depart="95.00">
        <walk edges="7975405#2 -7975405#7 31722496#6" busStop="367891514"/> <!-- Kälberwiese -->
        <ride busStop="5624015120" lines="461:1" intended="pt_bus_461:1.0" depart="422.00"/> <!-- Johannes-Selenka-Platz -->
        <walk edges="59393481#0 32905529#0"/>
    </person>
    <person id="ped20" type="ped_pedestrian" depart="100.00">
        <walk edges="484593099#1 7975439#2" busStop="337766463"/> <!-- Rudolfplatz -->
        <ride busStop="5624015120" lines="461:1" intended="pt_bus_461:1.0" depart="355.00"/> <!-- Johannes-Selenka-Platz -->
        <walk edges="59393481#0 167920423#2 -167920423#4"/>
    </person>
    <person id="ped21" type="ped_pedestrian" depart="105.00">
        <walk edges="-8074164#1 -529421172#3 30998338#0 171266151#0" busStop="59708112"/> <!-- Cyriaksring -->
        <ride busStop="59708131" lines="3:1" intended="pt_tram_3:1.1" depart="709.00"/> <!-- Emsstraße -->
        <walk edges="529421168 -gneE7"/>
    </person>
    <person id="ped22" type="ped_pedestrian" depart="110.00">
        <walk edges="-276159044 -238863539#3 462507193" busStop="4578931503"/> <!-- Maschplatz -->
        <ride busStop="337767290" lines="433:1" intended="pt_bus_433:1.0" depart="418.00"/> <!-- Rudolfplatz -->
        <walk edges="31722493#0 25624802#2 7975437#0 7975439#2" busStop="337766463"/> <!-- Rudolfplatz -->
        <walk edges="7975439#2 484593099#1 -484593099#2 31722496#1 31722496#1.197 -8074188#3"/>
    </person>
    <person id="ped23" type="ped_pedestrian" depart="115.00">
        <walk edges="-336013553#3 336013553#2 318774678#6 318774678#3 318774677#0 6144590#1" busStop="3887568676"/> <!-- Hamburger Straße (Steig D) -->
        <ride busStop="5624015120" lines="419:0" intended="pt_bus_419:0.1" depart="847.00"/> <!-- Johannes-Selenka-Platz -->
        <walk edges="59393481#0 -gneE6 9887590#1 9887599 -9887596#0"/>
    </person>
    <person id="ped24" type="ped_pedestrian" depart="120.00">
        <walk edges="378048182 25624802#2 31722494#3 48894048" busStop="337770114"/> <!-- Rudolfplatz -->
        <ride busStop="5509491267" lines="433:0" intended="pt_bus_433:0.0" depart="452.00"/> <!-- Hamburger Straße -->
        <walk edges="51352411 318774679#0 42137289#1 387385471#2 156543655#0"/>
    </person>
    <person id="ped25" type="ped_pedestrian" depart="125.00">
        <walk edges="167920423#2 68327840#2" busStop="80131267"/> <!-- Johannes-Selenka-Platz -->
        <ride busStop="367891520" lines="429:0" intended="pt_bus_429:0.0" depart="298.00"/> <!-- Kälberwiese -->
        <walk edges="231661249#8 7975405#6 7975405#2 4365022#1 24857827#0 7975408#0 -7975408#0"/>
    </person>
    <person id="ped26" type="ped_pedestrian" depart="130.00">
        <walk edges="-8078963#7 -355309951#3 106531541#7 -106531541#5 7975418#1 -9891028#0 -8074199#2 -8074199#3 8074204#0"/>
    </person>
    <person id="ped27" type="ped_pedestrian" depart="135.00">
        <walk edges="385335098#0" busStop="272855681"/> <!-- Cyriaksring -->
        <ride busStop="337770114" lines="429:0" intended="pt_bus_429:0.0" depart="170.00"/> <!-- Rudolfplatz -->
        <walk edges="48894048 31722494#3 31722493#0" busStop="337767290"/> <!-- Rudolfplatz -->
        <walk edges="31722493#0 375722891#0"/>
    </person>
    <person id="ped28" type="ped_pedestrian" depart="140.00">
        <walk edges="-529421172#3 -8074164#1 -8074173#4 -gneE5 68327840#2" busStop="80131267"/> <!-- Johannes-Selenka-Platz -->
        <ride busStop="3794742894" lines="443:0" intended="pt_bus_443:0.0" depart="693.00"/> <!-- Madamenweg -->
        <ride busStop="5509491267" lines="429:0" intended="pt_bus_429:0.1" depart="962.00"/> <!-- Hamburger Straße -->
        <walk edges="51352411 318774686 375862677#7 -375862680#4 7820081#0 -5083224#3 5083224#3"/>
    </person>
    <person id="ped29" type="ped_pedestrian" depart="145.00">
        <walk edges="-5140733#3 -483465545#3 375862675#2 299910129#2.39 299910129#2" busStop="251044906"/> <!-- Amalienplatz Weißes Ross -->
        <ride busStop="5509491267" lines="433:0" intended="pt_bus_433:0.0" depart="586.00"/> <!-- Hamburger Straße -->
        <walk edges="51352411 318774678#1 318774678#3 318774678#6" busStop="3239586704"/> <!-- Ludwigstraße -->
        <ride busStop="2166464260" lines="2:1" intended="pt_tram_2:1.1" depart="1198.00"/> <!-- Schützenplatz -->
        <walk edges="207441375#5"/>
    </person>
    <person id="ped30" type="ped_pedestrian" depart="150.00">
        <walk edges="9891028#0 7975416#0 -7975409#1 7975407#0 38075402#0"/>
    </person>
    <person id="ped31" type="ped_pedestrian" depart="155.00">
        <walk edges="320858416 -291313154" busStop="763361046"/> <!-- Ottweilerstrasse -->
        <ride busStop="337770114" lines="560:0" intended="pt_bus_560:0.0" depart="441.00"/> <!-- Rudolfplatz -->
        <ride busStop="5509491267" lines="429:0" intended="pt_bus_429:0.0" depart="713.00"/> <!-- Hamburger Straße -->
        <walk edges="51352411 318774686" busStop="3887568676"/> <!-- Hamburger Straße (Steig D) -->
        <walk edges="6144590#1 4314616#3 4314616#4"/>
    </person>
    <person id="ped32" type="ped_pedestrian" depart="160.00">
        <walk edges="7823653#0 5083224#5 5083224#3 375862677#2 462507193" busStop="4578931503"/> <!-- Maschplatz -->
        <ride busStop="369313965" lines="419:0" intended="pt_bus_419:0.1" depart="926.00"/> <!-- Cyriaksring -->
        <walk edges="385335099#0 32755712#0" busStop="59708112"/> <!-- Cyriaksring -->
        <ride busStop="59708131" lines="3:1" intended="pt_tram_3:1.3" depart="1909.00"/> <!-- Emsstraße -->
        <walk edges="529421167#0.294"/>
    </person>
    <person id="ped33" type="ped_pedestrian" depart="165.00">
        <walk edges="-8074173#4 -gneE5 68327840#2" busStop="80131267"/> <!-- Johannes-Selenka-Platz -->
        <walk edges="68327840#2 167920423#2 -167920423#4 -167920423#7 39458868#3 39458868#0 -106531541#10"/>
    </person>
    <person id="ped34" type="ped_pedestrian" depart="170.00">
        <walk edges="10522141#3 10522141#0 378048188#1 378048182 7975437#0 7975439#2" busStop="337766463"/> <!-- Rudolfplatz -->
        <walk edges="7975439#2 484593099#1 -484593099#2 31722496#1 31722496#1.197 31722496#6" busStop="367891514"/> <!-- Kälberwiese -->
        <ride busStop="367891393" lines="419:0" intended="pt_bus_419:0.1" depart="1185.00"/> <!-- Maienstraße -->
        <walk edges="106531540#2 106531540#2.51 -9891028#0 7975418#1 -106531541#5 106531541#7 -355309951#3 -8078963#7"/>
    </person>
    <person id="ped35" type="ped_pedestrian" depart="175.00">
        <walk edges="-7975409#1 7975407#0 -38075402#2 -103495995#0" busStop="-4071760550"/> <!-- Maienstraße -->
        <walk edges="-103495995#0 559569229#0.143 559569229#0 231661245#1 231661245#2 231661245#3 8074215#2"/>
    </person>
    <person id="ped36" type="ped_pedestrian" depart="180.00">
        <walk edges="7975418#1 7975416#0 -7975409#1 -7975409#4 7975405#6 231661249#8" busStop="367891520"/> <!-- Kälberwiese -->
        <ride busStop="337770114" lines="429:0" intended="pt_bus_429:0.1" depart="1185.00"/> <!-- Rudolfplatz -->
        <walk edges="48894048 31722494#3 25624802#2 378048182 378048188#1 10522141#0 10522141#3"/>
    </person>
    <person id="ped38" type="ped_pedestrian" depart="190.00">
        <walk edges="8074181#2 8074181#3 122164793" busStop="335750625"/> <!-- Hildesheimer Straße -->
        <ride busStop="337770114" lines="450:1" intended="pt_bus_450:1.0" depart="501.00"/> <!-- Rudolfplatz -->
        <walk edges="48894048 624411668#2 4365024#2 7975439#2" busStop="337766463"/> <!-- Rudolfplatz -->
        <ride busStop="5624015120" lines="419:0" intended="pt_bus_419:0.1" depart="1100.00"/> <!-- Johannes-Selenka-Platz -->
        <walk edges="59393481#0 -gneE5 -8074173#4 -8074164#1 -529421172#3 27150096#0"/>
    </person>
    <person id="ped39" type="ped_pedestrian" depart="195.00">
        <walk edges="-8078962#6 -106531541#10 -106531547#0" busStop="-822623518"/> <!-- Goslarsche Straße -->
        <ride busStop="3794742895" lines="443:1" intended="pt_bus_443:1.0" depart="613.00"/> <!-- Madamenweg -->
        <walk edges="626854754#1 -8074215#2" busStop="-492080041"/> <!-- Madamenweg -->
        <walk edges="-8074215#2"/>
    </person>
    <person id="ped40" type="ped_pedestrian" depart="200.00">
        <walk edges="325528580#1 325528580#2" busStop="59708124"/> <!-- Am Jödebrunnen -->
        <ride busStop="59708131" lines="3:1" intended="pt_tram_3:1.0" depart="264.00"/> <!-- Emsstraße -->
        <walk edges="529421168 529421168.93" busStop="59708130"/> <!-- Emsstraße -->
        <ride busStop="3144419491" lines="3:0" intended="pt_tram_3:0.1" depart="734.00"/> <!-- Cyriaksring -->
        <walk edges="30998338#0 314533296#0 59393481#2 68327840#2" busStop="80131267"/> <!-- Johannes-Selenka-Platz -->
        <walk edges="68327840#2 217194754#2 42128193#1" busStop="3794742894"/> <!-- Madamenweg -->
        <ride busStop="251044906" lines="429:0" intended="pt_bus_429:0.2" depart="1562.00"/> <!-- Amalienplatz Weißes Ross -->
        <walk edges="299910129#2 7975424#2" busStop="4089838969"/>
        <walk edges="7975424#2 25270811#9 25270811#8 -8074416#1"/>
    </person>
    <person id="ped41" type="ped_pedestrian" depart="205.00">
        <walk edges="355309951#0 8078963#2 42128193#1" busStop="3794742894"/> <!-- Madamenweg -->
        <ride busStop="1204082952" lines="461:0" intended="pt_bus_461:0.0" depart="425.00"/> <!-- Hildesheimer Straße -->
        <walk edges="10522141#3 10522141#0 378048188#1 378048182 25624802#2 31722494#3 48894048" busStop="337770114"/> <!-- Rudolfplatz -->
        <ride busStop="5509491267" lines="429:0" intended="pt_bus_429:0.1" depart="1313.00"/> <!-- Hamburger Straße -->
        <walk edges="51352411 318774686" busStop="3887568676"/> <!-- Hamburger Straße (Steig D) -->
        <walk edges="6144590#1 318774677#0 507113454 507114924#0 8004023#0"/>
    </person>
    <person id="ped42" type="ped_pedestrian" depart="210.00">
        <walk edges="231661245#1 559569229#0 559569229#0.143 231661249#1" busStop="367891451"/> <!-- Maienstraße -->
        <ride busStop="5509491267" lines="429:0" intended="pt_bus_429:0.0" depart="493.00"/> <!-- Hamburger Straße -->
        <walk edges="51352411 5139386#1" busStop="655300197"/> <!-- Hamburger Straße -->
        <ride busStop="3239586704" lines="2:1" intended="pt_tram_2:1.1" depart="1108.00"/> <!-- Ludwigstraße -->
        <walk edges="318774678#6" busStop="3239586703"/> <!-- Ludwigstraße -->
        <walk edges="507114919#0 -8004023#0"/>
    </person>
    <person id="ped43" type="ped_pedestrian" depart="215.00">
        <walk edges="gneE7 529421168.93" busStop="59708130"/> <!-- Emsstraße -->
        <ride busStop="3144419491" lines="3:0" intended="pt_tram_3:0.1" depart="734.00"/> <!-- Cyriaksring -->
        <walk edges="30998338#0 314533296#0 59393481#2 68327840#2" busStop="80131267"/> <!-- Johannes-Selenka-Platz -->
        <walk edges="68327840#2 217194754#2 42128193#1" busStop="3794742894"/> <!-- Madamenweg -->
        <ride busStop="251044906" lines="429:0" intended="pt_bus_429:0.2" depart="1562.00"/> <!-- Amalienplatz Weißes Ross -->
        <walk edges="299910129#2 7975424#2" busStop="4089838969"/>
        <walk edges="7975424#2 374169546#1 374169546#7" busStop="2304877704"/> <!-- Klinikum Celler Straße -->
        <ride busStop="-2304877707" lines="416:1" intended="pt_bus_416:1.2" depart="2404.00"/> <!-- Varrentrappstraße -->
        <walk edges="-30426838#3 30426842#1"/>
    </person>
    <person id="ped44" type="ped_pedestrian" depart="220.00">
        <walk edges="-32020609#0 8074181#2 8074181#3 122164793" busStop="335750625"/> <!-- Hildesheimer Straße -->
        <ride busStop="337770114" lines="450:1" intended="pt_bus_450:1.0" depart="501.00"/> <!-- Rudolfplatz -->
        <walk edges="48894048 624411668#2 4365024#2 7975439#2" busStop="337766463"/> <!-- Rudolfplatz -->
        <ride busStop="5624015120" lines="419:0" intended="pt_bus_419:0.1" depart="1100.00"/> <!-- Johannes-Selenka-Platz -->
        <walk edges="59393481#0 167920423#2 -167920423#4 -167920423#7"/>
    </person>
    <person id="ped45" type="ped_pedestrian" depart="225.00">
        <walk edges="-375862680#4 375862680#6"/>
    </person>
    <person id="ped46" type="ped_pedestrian" depart="230.00">
        <walk edges="59393478#0 31722496#6" busStop="367891514"/> <!-- Kälberwiese -->
        <walk edges="31722496#6 231661249#8" busStop="367891520"/> <!-- Kälberwiese -->
        <ride busStop="337769798" lines="422:1" intended="pt_bus_422:1.0" depart="495.00"/> <!-- Rudolfplatz -->
        <walk edges="624411668#2 48894048" busStop="337770114"/> <!-- Rudolfplatz -->
        <ride busStop="5509491267" lines="429:0" intended="pt_bus_429:0.0" depart="713.00"/> <!-- Hamburger Straße -->
        <walk edges="51352411 318774686" busStop="3887568676"/> <!-- Hamburger Straße (Steig D) -->
        <walk edges="6144590#1 4314616#3 4314616#4 23713549#0"/>
    </person>
    <person id="ped47" type="ped_pedestrian" depart="235.00">
        <walk edges="-23423492#0 23423492#0 -37608940#0 529421167#0" busStop="59708130"/> <!-- Emsstraße -->
        <ride busStop="3144419491" lines="3:0" intended="pt_tram_3:0.1" depart="734.00"/> <!-- Cyriaksring -->
        <walk edges="30998338#0 314533296#0 59393481#2 68327840#2" busStop="80131267"/> <!-- Johannes-Selenka-Platz -->
        <walk edges="68327840#2 217194754#2"/>
    </person>
    <person id="ped48" type="ped_pedestrian" depart="240.00">
        <walk edges="gneE6 68327840#2" busStop="80131267"/> <!-- Johannes-Selenka-Platz -->
        <ride busStop="367891520" lines="429:0" intended="pt_bus_429:0.0" depart="298.00"/> <!-- Kälberwiese -->
        <walk edges="231661249#8 31722496#1.197"/>
    </person>
    <person id="ped49" type="ped_pedestrian" depart="245.00">
        <walk edges="83723985#2 48861560#2" busStop="2708626053"/> <!-- Amalienplatz Weißes Ross -->
        <ride busStop="367891514" lines="419:0" intended="pt_bus_419:0.0" depart="404.00"/> <!-- Kälberwiese -->
        <walk edges="31722496#6 -7975405#7 7975405#2"/>
    </person>
    <person id="ped50" type="ped_pedestrian" depart="250.00">
        <walk edges="-10517312#6 277665454#2" busStop="2304877708"/> <!-- Varrentrappstraße -->
        <ride busStop="251044916" lines="416:0" intended="pt_bus_416:0.0" depart="421.00"/> <!-- Amalienplatz Weißes Ross -->
        <walk edges="83723985#2 299910129#2" busStop="251044906"/> <!-- Amalienplatz Weißes Ross -->
        <ride busStop="5509491267" lines="429:0" intended="pt_bus_429:0.1" depart="1390.00"/> <!-- Hamburger Straße -->
        <walk edges="51352411 5139388#3" busStop="3239587396"/> <!-- Hamburger Straße -->
        <ride busStop="3239586757" lines="1:1" intended="pt_tram_1:1.3" depart="2076.00"/> <!-- Mühlenpfordtstraße -->
        <walk edges="503119834#6"/>
    </person>
    <person id="ped51" type="ped_pedestrian" depart="255.00">
        <walk edges="4314516#5 62089686#1 462507193 37389514#3 37389514#0 6144590#1" busStop="3887568676"/> <!-- Hamburger Straße (Steig D) -->
        <walk edges="6144590#1 318774677#0 318774678#3"/>
    </person>
    <person id="ped52" type="ped_pedestrian" depart="260.00">
        <walk edges="-8078963#7 -355309951#3 106531541#7 -106531541#5 7975418#1 7975416#0 -7975409#1 7975407#0 38075402#0"/>
    </person>
    <person id="ped53" type="ped_pedestrian" depart="265.00">
        <walk edges="-375862680#7 -33077282 5139386#1" busStop="655300197"/> <!-- Hamburger Straße -->
        <ride busStop="2166464260" lines="1:0" intended="pt_tram_1:0.1" depart="743.00"/> <!-- Schützenplatz -->
        <walk edges="24692541#2"/>
    </person>
    <person id="ped54" type="ped_pedestrian" depart="270.00">
        <walk edges="263432785#7 8074174#1 -8074174#0 218253717#0 8074188#5 8074220#0"/>
    </person>
    <person id="ped55" type="ped_pedestrian" depart="275.00">
        <walk edges="7975418#1 7975416#0 -7975409#1 -7975409#4 7975405#6 231661249#8" busStop="367891520"/> <!-- Kälberwiese -->
        <ride busStop="251044906" lines="429:0" intended="pt_bus_429:0.1" depart="1185.00"/> <!-- Amalienplatz Weißes Ross -->
        <walk edges="299910129#2 7975424#2" busStop="4089838969"/>
        <walk edges="7975424#2 25270811#9 25270811#8 -8074416#1"/>
    </person>
    <person id="ped57" type="ped_pedestrian" depart="285.00">
        <walk edges="8074174#1 -8074174#0 8074208 -323437935#1 -8074188#3 -7975405#7 -7975409#4 7975409#0"/>
    </person>
    <person id="ped58" type="ped_pedestrian" depart="290.00">
        <walk edges="10237438#0 -7975405#4 7975405#6 231661249#8" busStop="367891520"/> <!-- Kälberwiese -->
        <ride busStop="251044906" lines="429:0" intended="pt_bus_429:0.0" depart="585.00"/> <!-- Amalienplatz Weißes Ross -->
        <walk edges="299910129#2 7975425#0 378166624#2"/>
    </person>
    <person id="ped59" type="ped_pedestrian" depart="295.00">
        <walk edges="375722891#0 31722493#0" busStop="337767290"/> <!-- Rudolfplatz -->
        <walk edges="31722493#0 31722494#3 48894048" busStop="337770114"/> <!-- Rudolfplatz -->
        <ride busStop="5509491267" lines="433:0" intended="pt_bus_433:0.0" depart="452.00"/> <!-- Hamburger Straße -->
        <walk edges="51352411 5139386#1 -33077282 -5096637#1 -5083224#6"/>
    </person>
    <person id="ped60" type="ped_pedestrian" depart="300.00">
        <walk edges="5140764#4 5140764#2 62089686#3 62089686#1 462507193 37389514#3 37389514#0 6144590#1" busStop="3887568676"/> <!-- Hamburger Straße (Steig D) -->
        <walk edges="6144590#1 318774677#0 318774678#3 318774678#6"/>
    </person>
    <person id="ped61" type="ped_pedestrian" depart="305.00">
        <walk edges="529421168 529421168.93" busStop="59708130"/> <!-- Emsstraße -->
        <ride busStop="3144419491" lines="3:0" intended="pt_tram_3:0.1" depart="734.00"/> <!-- Cyriaksring -->
        <walk edges="30998338#0 314533296#0 59393481#2 68327840#2" busStop="80131267"/> <!-- Johannes-Selenka-Platz -->
        <walk edges="68327840#2 217194754#2 42128193#1" busStop="3794742894"/> <!-- Madamenweg -->
        <ride busStop="367891520" lines="429:0" intended="pt_bus_429:0.2" depart="1562.00"/> <!-- Kälberwiese -->
        <walk edges="231661249#8 31722496#1.197"/>
    </person>
    <person id="ped62" type="ped_pedestrian" depart="310.00">
        <walk edges="-10237438#0 7975405#2 7975405#6 231661249#8" busStop="367891520"/> <!-- Kälberwiese -->
        <ride busStop="1204082952" lines="461:0" intended="pt_bus_461:0.0" depart="675.00"/> <!-- Hildesheimer Straße -->
        <walk edges="10522141#3 10522141#0 10522174#2"/>
    </person>
    <person id="ped63" type="ped_pedestrian" depart="315.00">
        <walk edges="-10526071#1 -323437935#1 -8074188#3 31722496#6" busStop="367891514"/> <!-- Kälberwiese -->
        <ride busStop="367891393" lines="419:0" intended="pt_bus_419:0.0" depart="585.00"/> <!-- Maienstraße -->
        <walk edges="106531540#2 106531540#2.51 8074199#2 8074199#3"/>
    </person>
    <person id="ped64" type="ped_pedestrian" depart="320.00">
        <walk edges="7975424#2 48861560#2" busStop="2708626053"/> <!-- Amalienplatz Weißes Ross -->
        <ride busStop="369313965" lines="419:0" intended="pt_bus_419:0.0" depart="404.00"/> <!-- Cyriaksring -->
        <walk edges="385335099#0 32755712#0 68327844#0 68327844#0.48"/>
    </person>
    <person id="ped65" type="ped_pedestrian" depart="325.00">
        <walk edges="10517312#5 -10517312#6 -30426838#3" busStop="-2304877707"/> <!-- Varrentrappstraße -->
        <walk edges="-30426838#3 -30426838#4 -30426827 30426827 30426790#0 10522108#3 374169546#9 374169546#7" busStop="2304877704"/> <!-- Klinikum Celler Straße -->
        <walk edges="374169546#7 374169546#1 374169548#0 374169553#0 48861560#2" busStop="2708626053"/> <!-- Amalienplatz Weißes Ross -->
        <ride busStop="337766463" lines="419:0" intended="pt_bus_419:0.2" depart="1604.00"/> <!-- Rudolfplatz -->
        <walk edges="7975439#2 484593099#1 -218253720#1"/>
    </person>