<?xml version="1.0" encoding="UTF-8"?>

<!-- generated on 11/26/18 17:38:25 by Eclipse SUMO duarouter Version 1.0.1
<configuration xmlns:xsi="http://www.w3.org/2001/XMLSchema-instance" xsi:noNamespaceSchemaLocation="http://sumo.dlr.de/xsd/duarouterConfiguration.xsd">

    <input>
        <net-file value="sirene.net.xml"/>
        <route-files value="sirene.bicycle.trips.xml"/>
    </input>

    <output>
        <output-file value="sirene.bicycle.rou.xml"/>
        <alternatives-output value="sirene.bicycle.rou.alt.xml"/>
    </output>

    <time>
        <begin value="0"/>
        <end value="10800.0"/>
    </time>

    <report>
        <no-warnings value="true"/>
        <ignore-errors value="true"/>
        <no-step-log value="true"/>
    </report>

</configuration>
-->

<routes xmlns:xsi="http://www.w3.org/2001/XMLSchema-instance" xsi:noNamespaceSchemaLocation="http://sumo.dlr.de/xsd/routes_file.xsd">
    <vType id="bike_bicycle" vClass="bicycle"/>
    <vehicle id="bike12" type="bike_bicycle" depart="60.00" departLane="best">
        <route edges="8004023#0 507114924#0 507113454 318774677#0 6144590#1 37389514#0 37389514#3 462507193 62089686#1 62089686#3 33364787 7975426#0 48861560#2 48861560#3 290601651#0 290601651#4"/>
    </vehicle>
    <vehicle id="bike23" type="bike_bicycle" depart="115.00" departLane="best">
        <route edges="-355309951#3 -8078963#7 626854755#0 626854755#2 559569229#0 559569229#0.143 231661249#1 231661249#2 231661249#3 231661249#3.63"/>
    </vehicle>
    <vehicle id="bike63" type="bike_bicycle" depart="315.00" departLane="best">
        <route edges="-106531547#0 -355309951#3 -8078963#7 626854755#0 626854755#2 559569229#0 559569229#0.143 231661249#1 231661249#2 231661249#3 231661249#3.63 231661249#8 231661249#8.62 31722495#0 624411668#2 48894048 30128883 7975428#1 7975428#3"/>
    </vehicle>
    <vehicle id="bike64" type="bike_bicycle" depart="320.00" departLane="best">
        <route edges="62089686#3 33364787 7975426#0 7975424#2 374169546#1 374169546#7 374169546#9 10522108#3 30426811 319192888 125502238#1 277671152 30426842#1 61890329"/>
    </vehicle>
    <vehicle id="bike66" type="bike_bicycle" depart="330.00" departLane="best">
        <route edges="62089686#1 62089686#3 33364787 7975426#0 48861560#2 48861560#3 290601651#0 290601651#4 375722891#0 31722493#0 25624802#2 378048182 378048188#1 10522141#0 10522141#3 8074184#2"/>
    </vehicle>
    <vehicle id="bike80" type="bike_bicycle" depart="400.00" departLane="best">
        <route edges="-32020609#1 -32020609#0 8074181#2 8074181#3 122164793 378048176#2 263432785#7 263432785#7.8 378048179#1 7975437#0 7975439#2 31722496#1 31722496#1.197 31722496#6 59393478#0 59393478#2 106531540#2 106531540#2.51 231661245#1 231661245#2 231661245#3 626854754#1 626854754#2 59393481#0 59393481#2 314533296#0 385335099#0"/>
    </vehicle>
    <vehicle id="bike89" type="bike_bicycle" depart="445.00" departLane="best">
        <route edges="314533296#0 30998338#0 27150093#0 325528580#0 325528580#1 325528580#2 325528580#3"/>
    </vehicle>
    <vehicle id="bike101" type="bike_bicycle" depart="505.00" departLane="best">
        <route edges="59393478#2 106531540#2"/>
    </vehicle>
    <vehicle id="bike106" type="bike_bicycle" depart="530.00" departLane="best">
        <route edges="318774678#6"/>
    </vehicle>
    <vehicle id="bike109" type="bike_bicycle" depart="545.00" departLane="best">
        <route edges="10231578#3 518086681 61996453#2 61996453#2.12 171266151#0 32905529#0 68327840#2 217194754#2 42128193#1 626854755#0 626854755#2 559569229#0 559569229#0.143 231661249#1 231661249#2 231661249#3 231661249#3.63 231661249#8 231661249#8.62 7975434#0 4365024#7 24857827#0"/>
    </vehicle>
    <vehicle id="bike116" type="bike_bicycle" depart="580.00" departLane="best">
        <route edges="385335098#0 385335098#1 314533294#0 32905529#0 68327840#2 217194754#2 42128193#1 626854755#0 626854755#2 559569229#0 559569229#0.143 231661249#1 231661249#2 231661249#3 231661249#3.63 231661249#8 231661249#8.62 31722495#0 624411668#2 48894048 30128883 7975428#1 7975428#3 375722892#0 135155217#1 299910129#2 299910129#2.39 299910129#3 299910129#4 299910129#7 299910129#7.6 375862677#2 375862677#4 375862677#7 318774686 51352411 318774679#0 37390117#2 37390117#3 503119834#6 387385476#1"/>
    </vehicle>
    <vehicle id="bike117" type="bike_bicycle" depart="585.00" departLane="best">
        <route edges="121709566#3 507114919#0 -8004023#0"/>
    </vehicle>
    <vehicle id="bike119" type="bike_bicycle" depart="595.00" departLane="best">
        <route edges="385335098#0 385335098#1"/>
    </vehicle>
    <vehicle id="bike120" type="bike_bicycle" depart="600.00" departLane="best">
        <route edges="314533294#0 32905529#0 68327840#2 217194754#2 42128193#1 626854755#0 626854755#2 559569229#0 559569229#0.143 231661249#1 231661249#2 231661249#3 231661249#3.63 231661249#8 231661249#8.62 7975434#0 4365024#7 24857827#0 24857827#1 413718443#1 526422259#0 375727027#0"/>
    </vehicle>
    <vehicle id="bike124" type="bike_bicycle" depart="620.00" departLane="best">
        <route edges="42128193#1 626854755#0 626854755#2 559569229#0 559569229#0.143 231661249#1 231661249#2 231661249#3 231661249#3.63 231661249#8 231661249#8.62 7975434#0 4365024#7 24857827#0 24857827#1"/>
    </vehicle>
    <vehicle id="bike126" type="bike_bicycle" depart="630.00" departLane="best">
        <route edges="-32020609#1 -32020609#0 8074181#2 8074181#3 122164793 378048176#2 263432785#7 263432785#7.8 378048179#1 7975437#0 7975439#2 31722496#1 31722496#1.197 31722496#6 59393478#0 59393478#2 106531540#2 106531540#2.51 231661245#1 231661245#2 231661245#3 626854754#1 626854754#2 59393481#0 59393481#2 314533296#0 30998338#0 27150093#0 325528580#0"/>
    </vehicle>
    <vehicle id="bike131" type="bike_bicycle" depart="655.00" departLane="best">
        <route edges="290601651#4 375722891#0 31722493#0 25624802#2 378048182 378048188#1 10522141#0 10522141#3"/>
    </vehicle>
    <vehicle id="bike148" type="bike_bicycle" depart="740.00" departLane="best">
        <route edges="31722493#0 25624802#2 378048182 378048188#1 10522141#0 10522141#3 8074184#2 8074184#2.37 320858416 -291313154"/>
    </vehicle>
    <vehicle id="bike156" type="bike_bicycle" depart="780.00" departLane="best">
        <route edges="135155217#1 299910129#2 299910129#2.39 299910129#3 299910129#4 299910129#7 299910129#7.6 375862677#2 375862677#4 375862677#7 318774686 51352411 318774679#0 292107965#1 -577566285"/>
    </vehicle>
    <vehicle id="bike159" type="bike_bicycle" depart="795.00" departLane="best">
        <route edges="10231578#3 518086681 61996453#2 61996453#2.12 171266151#0 32905529#0 68327840#2 217194754#2 42128193#1 626854755#0 626854755#2 559569229#0 559569229#0.143 231661249#1 231661249#2 231661249#3 231661249#3.63 231661249#8 231661249#8.62 7975434#0"/>
    </vehicle>
    <vehicle id="bike165" type="bike_bicycle" depart="825.00" departLane="best">
        <route edges="559569229#0.143 231661249#1"/>
    </vehicle>
    <vehicle id="bike176" type="bike_bicycle" depart="880.00" departLane="best">
        <route edges="8004023#0 507114924#0 507113454 318774677#0 6144590#1 37389514#0 37389514#3 462507193 62089686#1 62089686#3 33364787 7975426#0 7975424#2 374169546#1 374169546#7 374169546#9 10522108#3 30426811 319192888 125502238#1 277671152 30426842#1 61890329 61890739#2 -70545096#5"/>
    </vehicle>
    <vehicle id="bike184" type="bike_bicycle" depart="920.00" departLane="best">
        <route edges="-106531547#0 -355309951#3 -8078963#7 626854755#0 626854755#2 559569229#0 559569229#0.143 231661249#1 231661249#2 231661249#3 231661249#3.63 231661249#8 231661249#8.62 31722495#0 624411668#2 48894048 30128883 7975428#1"/>
    </vehicle>
    <vehicle id="bike186" type="bike_bicycle" depart="930.00" departLane="best">
        <route edges="503119834#6 387385476#1"/>
    </vehicle>
    <vehicle id="bike215" type="bike_bicycle" depart="1075.00" departLane="best">
        <route edges="-413718443#6 24857829#2 gneE9 392792123#2 30128883 7975428#1 7975428#3 375722892#0 135155217#1 299910129#2 299910129#2.39 299910129#3 299910129#4 299910129#7 299910129#7.6 375862677#2 375862677#4 375862677#7 318774686 51352411 318774679#0"/>
    </vehicle>
    <vehicle id="bike216" type="bike_bicycle" depart="1080.00" departLane="best">
        <route edges="10231578#3 518086681 61996453#2 61996453#2.12 171266151#0 32905529#0 68327840#2 217194754#2 42128193#1 626854755#0 626854755#2 559569229#0 559569229#0.143 231661249#1 231661249#2 231661249#3 231661249#3.63 231661249#8 231661249#8.62 31722495#0 624411668#2 48894048 30128883 7975428#1 7975428#3 375722892#0 135155217#1 83723985#2"/>
    </vehicle>
    <vehicle id="bike230" type="bike_bicycle" depart="1150.00" departLane="best">
        <route edges="-32020609#1 -32020609#0 8074181#2 8074181#3 122164793 378048176#2 263432785#7 263432785#7.8 378048179#1 7975437#0 7975439#2 31722496#1 31722496#1.197 31722496#6 59393478#0 59393478#2 106531540#2 106531540#2.51 231661245#1 231661245#2 231661245#3 626854754#1 626854754#2 59393481#0 59393481#2 314533296#0 30998338#0 27150093#0 325528580#0 325528580#1 325528580#2 325528580#3 23620034#0"/>
    </vehicle>
    <vehicle id="bike238" type="bike_bicycle" depart="1190.00" departLane="best">
        <route edges="378166624#2 394077003#0"/>
    </vehicle>
    <vehicle id="bike247" type="bike_bicycle" depart="1235.00" departLane="best">
        <route edges="24857829#2 gneE9 392792123#2 30128883 7975428#1 7975428#3 375722892#0 135155217#1 299910129#2 299910129#2.39 299910129#3 299910129#4 299910129#7 299910129#7.6 375862677#2 375862677#4 375862677#7 318774686 51352411 318774679#0 37390117#2 37390117#3 503119834#6 387385476#1"/>
    </vehicle>
    <vehicle id="bike254" type="bike_bicycle" depart="1270.00" departLane="best">
        <route edges="-207177331#0 -39536741#1 292107968#0 306488581 306488582"/>
    </vehicle>
    <vehicle id="bike257" type="bike_bicycle" depart="1285.00" departLane="best">
        <route edges="507114924#0 507113454 318774677#0 6144590#1 37389514#0 37389514#3 462507193 62089686#1 62089686#3 33364787 7975426#0 7975424#2 374169546#1 374169546#7 374169546#9 10522108#3 30426811 319192888 125502238#1 277671152 30426842#1 61890329"/>
    </vehicle>
    <vehicle id="bike258" type="bike_bicycle" depart="1290.00" departLane="best">
        <route edges="171266151#0 32905529#0 68327840#2 217194754#2 42128193#1 626854755#0 626854755#2 559569229#0 559569229#0.143 231661249#1 231661249#2 231661249#3 231661249#3.63 231661249#8 231661249#8.62 31722495#0 624411668#2 48894048 30128883 7975428#1 7975428#3 375722892#0 135155217#1 299910129#2 299910129#2.39 299910129#3 299910129#4 299910129#7 299910129#7.6 375862677#2 375862677#4 375862677#7 318774686 51352411 318774679#0 292107965#1 -577566285"/>
    </vehicle>
    <vehicle id="bike260" type="bike_bicycle" depart="1300.00" departLane="best">
        <route edges="gneE9 392792123#2 30128883 7975428#1 7975428#3 375722892#0 135155217#1 299910129#2 299910129#2.39"/>
    </vehicle>
    <vehicle id="bike269" type="bike_bicycle" depart="1345.00" departLane="best">
        <route edges="507114919#0 507114924#0 507113454 318774677#0 6144590#1 37389514#0 37389514#3 462507193 62089686#1 62089686#3 33364787 7975426#0 7975424#2 374169546#1 374169546#7 374169546#9 10522108#3 30426811 319192888 125502238#1 277671152 30426842#1 61890329 61890739#2 -70545096#5"/>
    </vehicle>
    <vehicle id="bike272" type="bike_bicycle" depart="1360.00" departLane="best">
        <route edges="231661249#8 231661249#8.62 31722495#0 624411668#2 48894048 30128883 7975428#1 7975428#3 375722892#0 135155217#1 299910129#2 299910129#2.39 299910129#3 299910129#4 299910129#7 299910129#7.6 375862677#2 375862677#4 375862677#7 318774686 51352411 318774679#0 37390117#2 37390117#3 503119834#6 387385476#1"/>
    </vehicle>
    <vehicle id="bike273" type="bike_bicycle" depart="1365.00" departLane="best">
        <route edges="8004023#0 507114924#0 507113454 318774677#0 6144590#1 37389514#0 37389514#3 462507193 62089686#1 62089686#3 33364787 7975426#0 48861560#2 48861560#3 290601651#0 290601651#4 375722891#0 31722493#0"/>
    </vehicle>
    <vehicle id="bike282" type="bike_bicycle" depart="1410.00" departLane="best">
        <route edges="59393481#0 59393481#2"/>
    </vehicle>
    <vehicle id="bike308" type="bike_bicycle" depart="1540.00" departLane="best">
        <route edges="507113454 318774677#0 6144590#1 37389514#0 37389514#3 462507193 62089686#1 62089686#3 33364787 7975426#0 7975424#2 374169546#1 374169546#7 374169546#9 10522108#3 30426811 319192888 125502238#1 277671152"/>
    </vehicle>
    <vehicle id="bike323" type="bike_bicycle" depart="1615.00" departLane="best">
        <route edges="61996453#2.12 171266151#0 32905529#0 68327840#2 217194754#2 42128193#1 626854755#0 626854755#2 559569229#0 559569229#0.143 231661249#1 231661249#2 231661249#3 231661249#3.63 231661249#8 231661249#8.62 7975434#0 4365024#7 24857827#0 24857827#1 413718443#1 526422259#0 375727027#0"/>
    </vehicle>
    <vehicle id="bike324" type="bike_bicycle" depart="1620.00" departLane="best">
        <route edges="319192876#4 319192876#9"/>
    </vehicle>
    <vehicle id="bike328" type="bike_bicycle" depart="1640.00" departLane="best">
        <route edges="-32020609#1 -32020609#0 8074181#2 8074181#3 122164793 378048176#2 263432785#7 263432785#7.8 378048179#1 7975437#0 7975439#2 31722496#1 31722496#1.197 31722496#6 59393478#0 59393478#2 106531540#2 106531540#2.51 231661245#1 231661245#2 231661245#3 626854754#1 626854754#2 59393481#0 59393481#2 314533296#0 385335099#0"/>
    </vehicle>
    <vehicle id="bike334" type="bike_bicycle" depart="1670.00" departLane="best">
        <route edges="37389514#0 37389514#3 462507193 62089686#1 62089686#3 33364787 7975426#0 48861560#2 48861560#3 290601651#0 290601651#4 375722891#0 31722493#0 25624802#2 378048182 378048188#1 10522141#0 10522141#3 8074184#2 8074184#2.37 320858416"/>
    </vehicle>
    <vehicle id="bike347" type="bike_bicycle" depart="1735.00" departLane="best">
        <route edges="529421168 529421168.93 325528579#0 32755484#1 32755484#2 32755484#3 529421166#0 27150096#0 314533295#0 385335099#0"/>
    </vehicle>
    <vehicle id="bike363" type="bike_bicycle" depart="1815.00" departLane="best">
        <route edges="42128193#1 626854755#0 626854755#2 559569229#0 559569229#0.143 231661249#1 231661249#2"/>
    </vehicle>
    <vehicle id="bike390" type="bike_bicycle" depart="1950.00" departLane="best">
        <route edges="577566285 292107968#0 306488581 306488582 318774678#1 318774678#3 318774678#6 4304445#0 6143906 24692541#2 348909761#0"/>
    </vehicle>
    <vehicle id="bike413" type="bike_bicycle" depart="2065.00" departLane="best">
        <route edges="-207177331#0 -39536741#1 292107968#0 306488581 306488582 318774678#1 318774678#3 318774678#6 4304445#0 6143906 24692541#2 348909761#0"/>
    </vehicle>
    <vehicle id="bike414" type="bike_bicycle" depart="2070.00" departLane="best">
        <route edges="385335098#0 385335098#1 314533294#0 32905529#0 68327840#2"/>
    </vehicle>
    <vehicle id="bike426" type="bike_bicycle" depart="2130.00" departLane="best">
        <route edges="-32020609#1 -32020609#0 8074181#2 8074181#3 122164793 378048176#2 263432785#7 263432785#7.8 378048179#1 7975437#0 7975439#2 31722496#1 31722496#1.197 31722496#6 59393478#0 59393478#2 106531540#2 106531540#2.51 231661245#1 231661245#2 231661245#3 626854754#1 626854754#2 59393481#0 59393481#2 314533296#0 385335099#0"/>
    </vehicle>
    <vehicle id="bike429" type="bike_bicycle" depart="2145.00" departLane="best">
        <route edges="-32020609#1 -32020609#0 8074181#2 8074181#3 122164793 378048176#2 263432785#7 263432785#7.8 378048179#1 7975437#0 7975439#2 31722496#1 31722496#1.197 31722496#6 59393478#0 59393478#2 106531540#2 106531540#2.51 231661245#1 231661245#2 231661245#3 626854754#1 626854754#2 59393481#0 59393481#2 314533296#0 385335099#0"/>
    </vehicle>
    <vehicle id="bike441" type="bike_bicycle" depart="2205.00" departLane="best">
        <route edges="-106531547#0 -355309951#3 -8078963#7 626854755#0 626854755#2 559569229#0"/>
    </vehicle>
    <vehicle id="bike442" type="bike_bicycle" depart="2210.00" departLane="best">
        <route edges="68327840#2 217194754#2 42128193#1 626854755#0 626854755#2 559569229#0 559569229#0.143 231661249#1 231661249#2 231661249#3 231661249#3.63 231661249#8 231661249#8.62 31722495#0 624411668#2 48894048 30128883 7975428#1 7975428#3 375722892#0 135155217#1 299910129#2 299910129#2.39 299910129#3 299910129#4 299910129#7 299910129#7.6 375862677#2 375862677#4 375862677#7 318774686 51352411 318774679#0 37390117#2 37390117#3 503119834#6 387385476#1"/>
    </vehicle>
    <vehicle id="bike457" type="bike_bicycle" depart="2285.00" departLane="best">
        <route edges="385335098#0 385335098#1 314533294#0 32905529#0 68327840#2 217194754#2 42128193#1 626854755#0 626854755#2 559569229#0 559569229#0.143 231661249#1 231661249#2 231661249#3 231661249#3.63 231661249#8 231661249#8.62 31722495#0 624411668#2 48894048 30128883 7975428#1 7975428#3 375722892#0 135155217#1 299910129#2 299910129#2.39"/>
    </vehicle>
    <vehicle id="bike480" type="bike_bicycle" depart="2400.00" departLane="best">
        <route edges="42128193#1 626854755#0 626854755#2 559569229#0 559569229#0.143 231661249#1 231661249#2 231661249#3 231661249#3.63 231661249#8 231661249#8.62 7975434#0 4365024#7 24857827#0 24857827#1 413718443#1 526422259#0 375727027#0"/>
    </vehicle>
    <vehicle id="bike492" type="bike_bicycle" depart="2460.00" departLane="best">
        <route edges="42128193#1 626854755#0 626854755#2 559569229#0 559569229#0.143 231661249#1 231661249#2 231661249#3 231661249#3.63 231661249#8 231661249#8.62 31722495#0 624411668#2 48894048 30128883 7975428#1 7975428#3 375722892#0 135155217#1 299910129#2 299910129#2.39 299910129#3 299910129#4 299910129#7 299910129#7.6 375862677#2 375862677#4 375862677#7 318774686 51352411 318774679#0 37390117#2 37390117#3 503119834#6"/>
    </vehicle>
    <vehicle id="bike515" type="bike_bicycle" depart="2575.00" departLane="best">
        <route edges="171266151#0 32905529#0 68327840#2 217194754#2 42128193#1 8078963#2 355309951#0 106531547#0"/>
    </vehicle>
    <vehicle id="bike531" type="bike_bicycle" depart="2655.00" departLane="best">
        <route edges="-32020609#1 -32020609#0 8074181#2 8074181#3 122164793 378048176#2 263432785#7 263432785#7.8 378048179#1"/>
    </vehicle>
    <vehicle id="bike536" type="bike_bicycle" depart="2680.00" departLane="best">
        <route edges="385335098#0 385335098#1 314533294#0 32905529#0 68327840#2 217194754#2 42128193#1 626854755#0 626854755#2 559569229#0 559569229#0.143 231661249#1 231661249#2 231661249#3 231661249#3.63 231661249#8 231661249#8.62 31722495#0 624411668#2 48894048 30128883 7975428#1 7975428#3 375722892#0 135155217#1 299910129#2 299910129#2.39 299910129#3 299910129#4 299910129#7 299910129#7.6 375862677#2 375862677#4 375862677#7 318774686 51352411 318774679#0 292107965#1 -577566285"/>
    </vehicle>
    <vehicle id="bike549" type="bike_bicycle" depart="2745.00" departLane="best">
        <route edges="378166624#2 394077003#0 375727027#0"/>
    </vehicle>
    <vehicle id="bike554" type="bike_bicycle" depart="2770.00" departLane="best">
        <route edges="385335098#0 385335098#1 314533294#0 32905529#0 68327840#2 217194754#2 42128193#1 626854755#0 626854755#2 559569229#0 559569229#0.143 231661249#1 231661249#2 231661249#3 231661249#3.63 231661249#8 231661249#8.62 31722495#0 624411668#2 48894048 30128883 7975428#1 7975428#3 375722892#0 135155217#1 299910129#2 299910129#2.39"/>
    </vehicle>
    <vehicle id="bike567" type="bike_bicycle" depart="2835.00" departLane="best">
        <route edges="61996453#2 61996453#2.12 171266151#0 32905529#0 68327840#2 217194754#2 42128193#1 626854755#0 626854755#2 559569229#0 559569229#0.143 231661249#1 231661249#2 231661249#3 231661249#3.63 231661249#8 231661249#8.62 7975434#0 4365024#7 24857827#0 24857827#1 413718443#1 526422259#0 375727027#0"/>
    </vehicle>
    <vehicle id="bike571" type="bike_bicycle" depart="2855.00" departLane="best">
        <route edges="314533294#0 32905529#0 68327840#2 217194754#2 42128193#1 626854755#0 626854755#2 559569229#0 559569229#0.143 231661249#1 231661249#2 231661249#3 231661249#3.63 231661249#8 231661249#8.62 31722495#0 624411668#2 48894048 30128883 7975428#1 7975428#3 375722892#0 135155217#1 299910129#2 299910129#2.39 299910129#3 299910129#4 299910129#7 299910129#7.6 375862677#2 375862677#4 375862677#7 318774686 51352411 318774679#0 292107965#1"/>
    </vehicle>
    <vehicle id="bike583" type="bike_bicycle" depart="2915.00" departLane="best">
        <route edges="299910129#7.6 375862677#2 375862677#4"/>
    </vehicle>
    <vehicle id="bike591" type="bike_bicycle" depart="2955.00" departLane="best">
        <route edges="-32020609#1 -32020609#0 8074181#2 8074181#3 122164793 378048176#2 263432785#7 263432785#7.8 378048179#1 7975437#0 7975439#2 31722496#1 31722496#1.197 31722496#6 59393478#0 59393478#2 106531540#2 106531540#2.51 231661245#1 231661245#2 231661245#3 626854754#1 626854754#2"/>
    </vehicle>
    <vehicle id="bike599" type="bike_bicycle" depart="2995.00" departLane="best">
        <route edges="7975425#0 299910129#2 299910129#2.39 299910129#3 299910129#4 299910129#7 299910129#7.6 375862677#2 375862677#4 375862677#7 318774686 51352411 318774679#0 292107965#1 -577566285"/>
    </vehicle>
    <vehicle id="bike608" type="bike_bicycle" depart="3040.00" departLane="best">
        <route edges="577566285 484594390#1 207177331#0"/>
    </vehicle>
    <vehicle id="bike610" type="bike_bicycle" depart="3050.00" departLane="best">
        <route edges="385335098#0 385335098#1 314533294#0 32905529#0 68327840#2 217194754#2 42128193#1 626854755#0 626854755#2 559569229#0 559569229#0.143 231661249#1 231661249#2 231661249#3 231661249#3.63 231661249#8 231661249#8.62 7975434#0 4365024#7 24857827#0 24857827#1 413718443#1 526422259#0"/>
    </vehicle>
    <vehicle id="bike619" type="bike_bicycle" depart="3095.00" departLane="best">
        <route edges="231661249#2 231661249#3"/>
    </vehicle>
    <vehicle id="bike620" type="bike_bicycle" depart="3100.00" departLane="best">
        <route edges="-207177331#0 -39536741#1 292107968#0 306488581 306488582 318774678#1 318774678#3 318774678#6 4304445#0 6143906 24692541#2 348909761#0"/>
    </vehicle>
    <vehicle id="bike639" type="bike_bicycle" depart="3195.00" departLane="best">
        <route edges="529421168 529421168.93 325528579#0 32755484#1 32755484#2 32755484#3 529421166#0 27150096#0 314533295#0 385335099#0"/>
    </vehicle>
    <vehicle id="bike643" type="bike_bicycle" depart="3215.00" departLane="best">
        <route edges="68327844#0"/>
    </vehicle>
    <vehicle id="bike647" type="bike_bicycle" depart="3235.00" departLane="best">
        <route edges="299910129#7 299910129#7.6 375862677#2"/>
    </vehicle>
    <vehicle id="bike656" type="bike_bicycle" depart="3280.00" departLane="best">
        <route edges="8004023#0 507114924#0 507113454 318774677#0 6144590#1 37389514#0 37389514#3 462507193 62089686#1 62089686#3 33364787"/>
    </vehicle>
    <vehicle id="bike669" type="bike_bicycle" depart="3345.00" departLane="best">
        <route edges="507114919#0 507114924#0 507113454 318774677#0 6144590#1 37389514#0 37389514#3 462507193 62089686#1 62089686#3 33364787 7975426#0 48861560#2 48861560#3 290601651#0 290601651#4 375722891#0 31722493#0 25624802#2 378048182 378048188#1 10522141#0 10522141#3 8074184#2 8074184#2.37 320858416"/>
    </vehicle>
    <vehicle id="bike687" type="bike_bicycle" depart="3435.00" departLane="best">
        <route edges="-207177331#0 -39536741#1 292107968#0 306488581 306488582 318774678#1 318774678#3 318774678#6 4304445#0 6143906 24692541#2 348909761#0"/>
    </vehicle>
    <vehicle id="bike702" type="bike_bicycle" depart="3510.00" departLane="best">
        <route edges="318774679#0 292107965#1 -577566285"/>
    </vehicle>
    <vehicle id="bike706" type="bike_bicycle" depart="3530.00" departLane="best">
        <route edges="31722493#0 25624802#2 378048182 378048188#1"/>
    </vehicle>
    <vehicle id="bike708" type="bike_bicycle" depart="3540.00" departLane="best">
        <route edges="394077003#0 -526422259#1 -413718443#6 24857829#2 gneE9 392792123#2 30128883 7975428#1 7975428#3 375722892#0 135155217#1 299910129#2 299910129#2.39 299910129#3 299910129#4 299910129#7 299910129#7.6 375862677#2 375862677#4 375862677#7 318774686 51352411 318774679#0 292107965#1 -577566285"/>
    </vehicle>
    <vehicle id="bike745" type="bike_bicycle" depart="3725.00" departLane="best">
        <route edges="61996453#2 61996453#2.12 171266151#0 32905529#0 68327840#2 217194754#2 42128193#1 626854755#0 626854755#2 559569229#0 559569229#0.143 231661249#1 231661249#2 231661249#3 231661249#3.63 231661249#8 231661249#8.62 31722495#0 624411668#2 48894048 30128883 7975428#1 7975428#3 375722892#0 135155217#1 299910129#2 299910129#2.39"/>
    </vehicle>
    <vehicle id="bike747" type="bike_bicycle" depart="3735.00" departLane="best">
        <route edges="8074184#2"/>
    </vehicle>
    <vehicle id="bike748" type="bike_bicycle" depart="3740.00" departLane="best">
        <route edges="-32020609#1 -32020609#0 8074181#2 8074181#3 122164793 378048176#2 263432785#7 263432785#7.8 378048179#1 7975437#0 7975439#2 31722496#1 31722496#1.197 31722496#6 59393478#0 59393478#2 106531540#2 106531540#2.51 231661245#1 231661245#2 231661245#3 626854754#1 626854754#2 59393481#0 59393481#2 314533296#0 385335099#0"/>
    </vehicle>
    <vehicle id="bike780" type="bike_bicycle" depart="3900.00" departLane="best">
        <route edges="374169553#0 48861560#2 48861560#3 290601651#0 290601651#4 375722891#0 31722493#0 25624802#2 378048182"/>
    </vehicle>
    <vehicle id="bike781" type="bike_bicycle" depart="3905.00" departLane="best">
        <route edges="-32020609#1 -32020609#0 8074181#2 8074181#3 122164793 378048176#2 263432785#7"/>
    </vehicle>
    <vehicle id="bike785" type="bike_bicycle" depart="3925.00" departLane="best">
        <route edges="8074181#2 8074181#3 122164793 378048176#2 263432785#7 263432785#7.8 378048179#1 7975437#0 7975439#2 31722496#1 31722496#1.197 31722496#6 59393478#0 59393478#2 106531540#2 106531540#2.51 231661245#1 231661245#2 231661245#3 626854754#1 626854754#2 59393481#0 59393481#2 314533296#0 385335099#0"/>
    </vehicle>
    <vehicle id="bike788" type="bike_bicycle" depart="3940.00" departLane="best">
        <route edges="529421168 529421168.93 325528579#0 32755484#1 32755484#2 32755484#3 529421166#0 27150096#0 314533295#0 385335099#0"/>
    </vehicle>
    <vehicle id="bike798" type="bike_bicycle" depart="3990.00" departLane="best">
        <route edges="231661249#2 231661249#3 231661249#3.63 231661249#8 231661249#8.62 31722495#0 624411668#2 48894048 30128883 7975428#1 7975428#3 375722892#0 135155217#1 299910129#2 299910129#2.39 299910129#3 299910129#4 299910129#7 299910129#7.6 375862677#2 375862677#4 375862677#7 318774686 51352411 318774679#0 37390117#2 37390117#3"/>
    </vehicle>
    <vehicle id="bike800" type="bike_bicycle" depart="4000.00" departLane="best">
        <route edges="8004023#0 507114924#0 507113454 318774677#0 6144590#1 37389514#0 37389514#3 462507193 62089686#1 62089686#3 33364787 7975426#0 48861560#2 48861560#3 290601651#0 290601651#4 375722891#0 31722493#0 25624802#2 378048182 378048188#1 10522141#0"/>
    </vehicle>
    <vehicle id="bike821" type="bike_bicycle" depart="4105.00" departLane="best">
        <route edges="-32020609#1 -32020609#0 8074181#2 8074181#3 122164793 378048176#2 263432785#7 263432785#7.8 378048179#1 7975437#0 7975439#2 31722496#1 31722496#1.197 31722496#6 59393478#0 59393478#2 106531540#2 106531540#2.51 231661245#1 231661245#2 231661245#3 626854754#1 626854754#2 59393481#0 59393481#2 314533296#0 30998338#0 27150093#0 325528580#0 325528580#1 325528580#2 325528580#3 23620034#0 23620034#0.48"/>
    </vehicle>
    <vehicle id="bike831" type="bike_bicycle" depart="4155.00" departLane="best">
        <route edges="277665454#0 277665454#2 277665454#4 gneE11 gneE11.36 319192894#0 -538699600"/>
    </vehicle>
    <vehicle id="bike840" type="bike_bicycle" depart="4200.00" departLane="best">
        <route edges="32755484#2 32755484#3 529421166#0"/>
    </vehicle>
    <vehicle id="bike843" type="bike_bicycle" depart="4215.00" departLane="best">
        <route edges="8074181#3 122164793 378048176#2 263432785#7 263432785#7.8 378048179#1 7975437#0 7975439#2 31722496#1 31722496#1.197 31722496#6 59393478#0 59393478#2 106531540#2 106531540#2.51 231661245#1 231661245#2 231661245#3 626854754#1 626854754#2 59393481#0 59393481#2 314533296#0"/>
    </vehicle>
    <vehicle id="bike860" type="bike_bicycle" depart="4300.00" departLane="best">
        <route edges="47007890 121709566#3 507114919#0 507114924#0 507113454 318774677#0 6144590#1 37389514#0 37389514#3 462507193 62089686#1 62089686#3 33364787 7975426#0 48861560#2 48861560#3 290601651#0 290601651#4 375722891#0 31722493#0 25624802#2 378048182 378048188#1 10522141#0 10522141#3 8074184#2 8074184#2.37 320858416 -291313154"/>
    </vehicle>
    <vehicle id="bike881" type="bike_bicycle" depart="4405.00" departLane="best">
        <route edges="385335098#0 385335098#1 314533294#0 32905529#0 68327840#2 217194754#2 42128193#1 8078963#2 355309951#0 106531547#0"/>
    </vehicle>
    <vehicle id="bike884" type="bike_bicycle" depart="4420.00" departLane="best">
        <route edges="231661245#3 626854754#1 626854754#2 59393481#0 59393481#2 314533296#0 30998338#0 27150093#0 325528580#0 325528580#1 325528580#2 325528580#3 23620034#0 23620034#0.48"/>
    </vehicle>
    <vehicle id="bike886" type="bike_bicycle" depart="4430.00" departLane="best">
        <route edges="231661249#8.62 31722495#0 624411668#2 48894048 30128883 7975428#1 7975428#3 375722892#0 135155217#1 299910129#2"/>