<?xml version="1.0" encoding="UTF-8"?>
<!-- generated on 2018-11-26 17:38:26.834000 by $Id$ via randomTrips.py
  options: -n sirene.net.xml <doubleminus>seed 42 <doubleminus>fringe-factor 10 -p 40 -r sirene.motorcycle.rou.xml -o sirene.motorcycle.trips.xml -e 10800 <doubleminus>vehicle-class motorcycle <doubleminus>vclass motorcycle <doubleminus>prefix moto <doubleminus>max-distance 1200 <doubleminus>trip-attributes departLane="best" <doubleminus>validate
-->
<routes xmlns:xsi="http://www.w3.org/2001/XMLSchema-instance" xsi:noNamespaceSchemaLocation="http://sumo.dlr.de/xsd/routes_file.xsd">
    <vType id="moto_motorcycle" vClass="motorcycle">
    </vType>
    <trip id="moto0" depart="0.00" departLane="best" from="-7975408#0" to="-8074215#2" type="moto_motorcycle"/>
    <trip id="moto1" depart="40.00" departLane="best" from="387385477#1" to="462507193" type="moto_motorcycle"/>
    <trip id="moto2" depart="80.00" departLane="best" from="7976291#0" to="-326114792#1" type="moto_motorcycle"/>
    <trip id="moto3" depart="120.00" departLane="best" from="106531538#2" to="-10526071#1" type="moto_motorcycle"/>
    <trip id="moto4" depart="160.00" departLane="best" from="-5134912#3" to="30128883" type="moto_motorcycle"/>
    <trip id="moto6" depart="240.00" departLane="best" from="-5134912#3" to="336013553#2" type="moto_motorcycle"/>
    <trip id="moto8" depart="320.00" departLane="best" from="-8105196" to="-529421172#3" type="moto_motorcycle"/>
    <trip id="moto9" depart="360.00" departLane="best" from="525353018#1" to="5140348" type="moto_motorcycle"/>
    <trip id="moto10" depart="400.00" departLane="best" from="10517312#5" to="319192893#0.50" type="moto_motorcycle"/>
    <trip id="moto11" depart="440.00" departLane="best" from="38075402#0" to="-167920423#4" type="moto_motorcycle"/>
    <trip id="moto12" depart="480.00" departLane="best" from="-217362176#1" to="-9887589#4" type="moto_motorcycle"/>
    <trip id="moto13" depart="520.00" departLane="best" from="-22559297#1" to="10522141#3" type="moto_motorcycle"/>
    <trip id="moto14" depart="560.00" departLane="best" from="318774679#0" to="207177331#0" type="moto_motorcycle"/>
    <trip id="moto15" depart="600.00" departLane="best" from="319192893#0" to="375722891#0" type="moto_motorcycle"/>
    <trip id="moto16" depart="640.00" departLane="best" from="gneE7" to="385335098#1" type="moto_motorcycle"/>
    <trip id="moto17" depart="680.00" departLane="best" from="-70395918#2" to="-106531538#3" type="moto_motorcycle"/>
    <trip id="moto18" depart="720.00" departLane="best" from="-8074220#2" to="10237438#0" type="moto_motorcycle"/>
    <trip id="moto19" depart="760.00" departLane="best" from="291313154" to="8074220#0" type="moto_motorcycle"/>
    <trip id="moto20" depart="800.00" departLane="best" from="gneE23" to="8074164#3" type="moto_motorcycle"/>
    <trip id="moto21" depart="840.00" departLane="best" from="-10522157#4" to="5134912#1" type="moto_motorcycle"/>
    <trip id="moto22" depart="880.00" departLane="best" from="37389514#3" to="318774678#3" type="moto_motorcycle"/>
    <trip id="moto23" depart="920.00" departLane="best" from="7975391#5" to="10237438#0" type="moto_motorcycle"/>
    <trip id="moto24" depart="960.00" departLane="best" from="218253719#3" to="-7975388#0" type="moto_motorcycle"/>
    <trip id="moto25" depart="1000.00" departLane="best" from="8074188#5" to="8074199#2" type="moto_motorcycle"/>
    <trip id="moto26" depart="1040.00" departLane="best" from="501406798#0" to="31722494#3" type="moto_motorcycle"/>
    <trip id="moto27" depart="1080.00" departLane="best" from="-10237438#0" to="122164793" type="moto_motorcycle"/>
    <trip id="moto28" depart="1120.00" departLane="best" from="7975394#1" to="7975408#0" type="moto_motorcycle"/>
    <trip id="moto29" depart="1160.00" departLane="best" from="-7975407#2" to="8074199#4" type="moto_motorcycle"/>
    <trip id="moto30" depart="1200.00" departLane="best" from="106531538#4" to="-8074199#4" type="moto_motorcycle"/>
    <trip id="moto31" depart="1240.00" departLane="best" from="-8074416#1" to="336013553#2" type="moto_motorcycle"/>
    <trip id="moto32" depart="1280.00" departLane="best" from="-70395918#2" to="-8074204#5" type="moto_motorcycle"/>
    <trip id="moto33" depart="1320.00" departLane="best" from="-7820081#5" to="4314616#3" type="moto_motorcycle"/>
    <trip id="moto35" depart="1400.00" departLane="best" from="106698930#0" to="8074171#3" type="moto_motorcycle"/>
    <trip id="moto36" depart="1440.00" departLane="best" from="gneE9" to="7975408#0" type="moto_motorcycle"/>
    <trip id="moto37" depart="1480.00" departLane="best" from="10522156#7" to="-25270811#10" type="moto_motorcycle"/>
    <trip id="moto38" depart="1520.00" departLane="best" from="26229178#2" to="5140764#2" type="moto_motorcycle"/>
    <trip id="moto39" depart="1560.00" departLane="best" from="-5083224#3" to="5134912#1" type="moto_motorcycle"/>
    <trip id="moto40" depart="1600.00" departLane="best" from="-217362175#1" to="-8074201#2" type="moto_motorcycle"/>
    <trip id="moto41" depart="1640.00" departLane="best" from="-7975407#2" to="9887597" type="moto_motorcycle"/>
    <trip id="moto42" depart="1680.00" departLane="best" from="7975407#0" to="8074199#8" type="moto_motorcycle"/>
    <trip id="moto44" depart="1760.00" departLane="best" from="326114792#1" to="gneE11.36" type="moto_motorcycle"/>
    <trip id="moto45" depart="1800.00" departLane="best" from="-7975408#0" to="374169546#7" type="moto_motorcycle"/>
    <trip id="moto46" depart="1840.00" departLane="best" from="624411668#2" to="-367772443#2" type="moto_motorcycle"/>
    <trip id="moto47" depart="1880.00" departLane="best" from="106531538#8" to="10522141#0" type="moto_motorcycle"/>
    <trip id="moto48" depart="1920.00" departLane="best" from="-217362175#1" to="8074208" type="moto_motorcycle"/>
    <trip id="moto49" depart="1960.00" departLane="best" from="577566285" to="336013553#2" type="moto_motorcycle"/>
    <trip id="moto50" depart="2000.00" departLane="best" from="-30426827" to="-4314616#3" type="moto_motorcycle"/>
    <trip id="moto51" depart="2040.00" departLane="best" from="-8074215#8" to="8074220#0" type="moto_motorcycle"/>
    <trip id="moto52" depart="2080.00" departLane="best" from="-7975383" to="-38075402#0" type="moto_motorcycle"/>
    <trip id="moto53" depart="2120.00" departLane="best" from="501406798#0" to="8074213#2" type="moto_motorcycle"/>
    <trip id="moto54" depart="2160.00" departLane="best" from="10522159#0" to="375862676#2" type="moto_motorcycle"/>
    <trip id="moto55" depart="2200.00" departLane="best" from="5140764#4" to="8074174#0" type="moto_motorcycle"/>
    <trip id="moto56" depart="2240.00" departLane="best" from="-5134912#3" to="7975392#1" type="moto_motorcycle"/>
    <trip id="moto57" depart="2280.00" departLane="best" from="-106531538#3" to="-7975409#4" type="moto_motorcycle"/>
    <trip id="moto58" depart="2320.00" departLane="best" from="-8074412#2" to="8074174#0" type="moto_motorcycle"/>
    <trip id="moto59" depart="2360.00" departLane="best" from="9887589#4" to="-39458868#1" type="moto_motorcycle"/>
    <trip id="moto61" depart="2440.00" departLane="best" from="10517312#5" to="332880808" type="moto_motorcycle"/>
    <trip id="moto62" depart="2480.00" departLane="best" from="-7975383" to="5134764#0" type="moto_motorcycle"/>
    <trip id="moto63" depart="2520.00" departLane="best" from="-10237438#0" to="8105196" type="moto_motorcycle"/>
    <trip id="moto64" depart="2560.00" departLane="best" from="25624802#2" to="5134912#1" type="moto_motorcycle"/>
    <trip id="moto65" depart="2600.00" departLane="best" from="413718443#1" to="4365022#1" type="moto_motorcycle"/>
    <trip id="moto66" depart="2640.00" departLane="best" from="326114792#1" to="125502238#1" type="moto_motorcycle"/>
    <trip id="moto67" depart="2680.00" departLane="best" from="-8074220#2" to="7976290#2" type="moto_motorcycle"/>
    <trip id="moto68" depart="2720.00" departLane="best" from="385335098#0" to="106531541#7" type="moto_motorcycle"/>
    <trip id="moto69" depart="2760.00" departLane="best" from="-8074215#8" to="231661249#3" type="moto_motorcycle"/>
    <trip id="moto70" depart="2800.00" departLane="best" from="-10237438#0" to="10522174#2" type="moto_motorcycle"/>
    <trip id="moto71" depart="2840.00" departLane="best" from="106698930#0" to="-8074204#0" type="moto_motorcycle"/>
    <trip id="moto72" depart="2880.00" departLane="best" from="5139388#3" to="-577566285" type="moto_motorcycle"/>
    <trip id="moto73" depart="2920.00" departLane="best" from="10526071#1" to="378166624#2" type="moto_motorcycle"/>
    <trip id="moto74" depart="2960.00" departLane="best" from="4314516#4" to="6143906" type="moto_motorcycle"/>
    <trip id="moto75" depart="3000.00" departLane="best" from="24038685#4" to="-218253719#3" type="moto_motorcycle"/>
    <trip id="moto76" depart="3040.00" departLane="best" from="-7975383" to="7976290#2" type="moto_motorcycle"/>
    <trip id="moto77" depart="3080.00" departLane="best" from="7976290#2" to="375727027#0" type="moto_motorcycle"/>
    <trip id="moto78" depart="3120.00" departLane="best" from="8004023#0" to="5140732" type="moto_motorcycle"/>
    <trip id="moto80" depart="3200.00" departLane="best" from="31722494#1" to="103495995#0" type="moto_motorcycle"/>
    <trip id="moto81" depart="3240.00" departLane="best" from="38075402#0" to="-25270811#6" type="moto_motorcycle"/>
    <trip id="moto82" depart="3280.00" departLane="best" from="10526071#1" to="-8074173#4" type="moto_motorcycle"/>
    <trip id="moto83" depart="3320.00" departLane="best" from="10517312#5" to="-10517312#6" type="moto_motorcycle"/>
    <trip id="moto84" depart="3360.00" departLane="best" from="68327844#0" to="gneE24" type="moto_motorcycle"/>
    <trip id="moto85" depart="3400.00" departLane="best" from="-8074416#1" to="4725993" type="moto_motorcycle"/>
    <trip id="moto86" depart="3440.00" departLane="best" from="310964899" to="-10526071#1" type="moto_motorcycle"/>
    <trip id="moto87" depart="3480.00" departLane="best" from="-25584897#3" to="26229239#0" type="moto_motorcycle"/>
    <trip id="moto88" depart="3520.00" departLane="best" from="-161838918" to="218253720#3" type="moto_motorcycle"/>
    <trip id="moto89" depart="3560.00" departLane="best" from="4314516#4" to="7975408#0" type="moto_motorcycle"/>
    <trip id="moto90" depart="3600.00" departLane="best" from="-7975383" to="-323437935#1" type="moto_motorcycle"/>
    <trip id="moto91" depart="3640.00" departLane="best" from="gneE9" to="167286681#1" type="moto_motorcycle"/>
    <trip id="moto92" depart="3680.00" departLane="best" from="-23713549#0" to="4314616#4" type="moto_motorcycle"/>
    <trip id="moto93" depart="3720.00" departLane="best" from="378048182" to="59393478#0" type="moto_motorcycle"/>
    <trip id="moto94" depart="3760.00" departLane="best" from="4314516#4" to="-384709617#1" type="moto_motorcycle"/>
    <trip id="moto96" depart="3840.00" departLane="best" from="375727032#0" to="378048179#1" type="moto_motorcycle"/>
    <trip id="moto97" depart="3880.00" departLane="best" from="501406798#0" to="167286681#1" type="moto_motorcycle"/>
    <trip id="moto98" depart="3920.00" departLane="best" from="106531541#5" to="217362176#3" type="moto_motorcycle"/>
    <trip id="moto99" depart="3960.00" departLane="best" from="231661249#1" to="161838918" type="moto_motorcycle"/>
    <trip id="moto100" depart="4000.00" departLane="best" from="626854755#0" to="7975407#2" type="moto_motorcycle"/>
    <trip id="moto101" depart="4040.00" departLane="best" from="38075402#0" to="24038685#7" type="moto_motorcycle"/>
    <trip id="moto102" depart="4080.00" departLane="best" from="-7975407#2" to="7975381#1" type="moto_motorcycle"/>
    <trip id="moto103" depart="4120.00" departLane="best" from="25270811#9" to="277671135" type="moto_motorcycle"/>
    <trip id="moto104" depart="4160.00" departLane="best" from="577566285" to="-326114792#1" type="moto_motorcycle"/>
    <trip id="moto106" depart="4240.00" departLane="best" from="-8105196" to="8074199#8" type="moto_motorcycle"/>
    <trip id="moto107" depart="4280.00" departLane="best" from="378166624#2" to="10522108#3" type="moto_motorcycle"/>
    <trip id="moto108" depart="4320.00" departLane="best" from="-103270688#7" to="gneE24" type="moto_motorcycle"/>
    <trip id="moto109" depart="4360.00" departLane="best" from="-218253720#3" to="-8074204#5" type="moto_motorcycle"/>
    <trip id="moto110" depart="4400.00" departLane="best" from="25270811#5" to="23713549#0" type="moto_motorcycle"/>
    <trip id="moto111" depart="4440.00" departLane="best" from="431412128" to="125502265" type="moto_motorcycle"/>
    <trip id="moto112" depart="4480.00" departLane="best" from="38075402#0" to="10237438#0" type="moto_motorcycle"/>
    <trip id="moto113" depart="4520.00" departLane="best" from="-7975383" to="-4314516#4" type="moto_motorcycle"/>
    <trip id="moto114" depart="4560.00" departLane="best" from="207441375#5" to="51352411" type="moto_motorcycle"/>
    <trip id="moto115" depart="4600.00" departLane="best" from="-37852651" to="-10522156#7" type="moto_motorcycle"/>
    <trip id="moto116" depart="4640.00" departLane="best" from="7975388#0" to="288155218" type="moto_motorcycle"/>
    <trip id="moto117" depart="4680.00" departLane="best" from="7975388#0" to="332880772" type="moto_motorcycle"/>
    <trip id="moto118" depart="4720.00" departLane="best" from="-37852651" to="-218253719#3" type="moto_motorcycle"/>
    <trip id="moto119" depart="4760.00" departLane="best" from="-217362175#1" to="378048188#1" type="moto_motorcycle"/>
    <trip id="moto120" depart="4800.00" departLane="best" from="106698930#0" to="8074164#0" type="moto_motorcycle"/>
    <trip id="moto121" depart="4840.00" departLane="best" from="326114792#1" to="-538699600" type="moto_motorcycle"/>
    <trip id="moto123" depart="4920.00" departLane="best" from="319192888" to="8074412#1" type="moto_motorcycle"/>
    <trip id="moto124" depart="4960.00" departLane="best" from="-8013583#1" to="-4314516#4" type="moto_motorcycle"/>
    <trip id="moto125" depart="5000.00" departLane="best" from="-218253720#3" to="gneE26" type="moto_motorcycle"/>
    <trip id="moto126" depart="5040.00" departLane="best" from="-106931173#1" to="529421167#0.294" type="moto_motorcycle"/>
    <trip id="moto127" depart="5080.00" departLane="best" from="156543655#0" to="387385476#1" type="moto_motorcycle"/>
    <trip id="moto128" depart="5120.00" departLane="best" from="8074201#1" to="-7975388#0" type="moto_motorcycle"/>
    <trip id="moto129" depart="5160.00" departLane="best" from="-8074412#2" to="507113454" type="moto_motorcycle"/>
    <trip id="moto130" depart="5200.00" departLane="best" from="-8074412#2" to="gneE27" type="moto_motorcycle"/>
    <trip id="moto132" depart="5280.00" departLane="best" from="4314616#3" to="375862680#6" type="moto_motorcycle"/>
    <trip id="moto133" depart="5320.00" departLane="best" from="26563633#2" to="83094952#2" type="moto_motorcycle"/>
    <trip id="moto134" depart="5360.00" departLane="best" from="-23423492#0" to="gneE3" type="moto_motorcycle"/>
    <trip id="moto135" depart="5400.00" departLane="best" from="122164828#0" to="-413718443#6" type="moto_motorcycle"/>
    <trip id="moto136" depart="5440.00" departLane="best" from="-7975408#0" to="7975408#0" type="moto_motorcycle"/>
    <trip id="moto137" depart="5480.00" departLane="best" from="7975405#2" to="8074174#0" type="moto_motorcycle"/>
    <trip id="moto138" depart="5520.00" departLane="best" from="10526071#1" to="9887598" type="moto_motorcycle"/>
    <trip id="moto139" depart="5560.00" departLane="best" from="231661249#3" to="7975405#6" type="moto_motorcycle"/>
    <trip id="moto140" depart="5600.00" departLane="best" from="25624802#2" to="167286681#1" type="moto_motorcycle"/>
    <trip id="moto142" depart="5680.00" departLane="best" from="121709569#0" to="121709569#0" type="moto_motorcycle"/>
    <trip id="moto144" depart="5760.00" departLane="best" from="7975388#0" to="24857827#1" type="moto_motorcycle"/>
    <trip id="moto148" depart="5920.00" departLane="best" from="7975388#0" to="-106531542#1" type="moto_motorcycle"/>
    <trip id="moto149" depart="5960.00" departLane="best" from="4314516#4" to="24038685#0" type="moto_motorcycle"/>
    <trip id="moto150" depart="6000.00" departLane="best" from="7975388#0" to="25115860" type="moto_motorcycle"/>
    <trip id="moto151" depart="6040.00" departLane="best" from="-161838918" to="70395918#2" type="moto_motorcycle"/>
    <trip id="moto152" depart="6080.00" departLane="best" from="-8074173#4" to="217362176#3" type="moto_motorcycle"/>
    <trip id="moto153" depart="6120.00" departLane="best" from="-30426827" to="31722495#0" type="moto_motorcycle"/>
    <trip id="moto154" depart="6160.00" departLane="best" from="-336013553#3" to="-30426838#3" type="moto_motorcycle"/>
    <trip id="moto155" depart="6200.00" departLane="best" from="7975388#0" to="375862675#2" type="moto_motorcycle"/>
    <trip id="moto156" depart="6240.00" departLane="best" from="-7975381#1" to="8074412#1" type="moto_motorcycle"/>
    <trip id="moto157" depart="6280.00" departLane="best" from="-30426827" to="26229239#0" type="moto_motorcycle"/>
    <trip id="moto158" depart="6320.00" departLane="best" from="318894712" to="23713549#0" type="moto_motorcycle"/>
    <trip id="moto159" depart="6360.00" departLane="best" from="-7975383" to="7975428#3" type="moto_motorcycle"/>
    <trip id="moto160" depart="6400.00" departLane="best" from="374169546#9" to="5140733#1" type="moto_motorcycle"/>
    <trip id="moto161" depart="6440.00" departLane="best" from="218253719#3" to="8074220#0" type="moto_motorcycle"/>
    <trip id="moto162" depart="6480.00" departLane="best" from="318774686" to="375862676#2" type="moto_motorcycle"/>
    <trip id="moto163" depart="6520.00" departLane="best" from="31722494#3" to="8074220#0" type="moto_motorcycle"/>
    <trip id="moto164" depart="6560.00" departLane="best" from="387385477#1" to="-326114792#1" type="moto_motorcycle"/>
    <trip id="moto165" depart="6600.00" departLane="best" from="-8074174#0" to="5140740#0" type="moto_motorcycle"/>
    <trip id="moto166" depart="6640.00" departLane="best" from="25270811#5" to="8074412#1" type="moto_motorcycle"/>
    <trip id="moto167" depart="6680.00" departLane="best" from="525353018#1" to="5140736" type="moto_motorcycle"/>
    <trip id="moto168" depart="6720.00" departLane="best" from="-8078962#6" to="-39458868#1" type="moto_motorcycle"/>
    <trip id="moto169" depart="6760.00" departLane="best" from="gneE23" to="8074164#0" type="moto_motorcycle"/>
    <trip id="moto170" depart="6800.00" departLane="best" from="10231578#3" to="68327844#3" type="moto_motorcycle"/>
    <trip id="moto171" depart="6840.00" departLane="best" from="332880773" to="336013553#2" type="moto_motorcycle"/>
    <trip id="moto172" depart="6880.00" departLane="best" from="-23094097#1" to="-9887589#4" type="moto_motorcycle"/>
    <trip id="moto173" depart="6920.00" departLane="best" from="-106531538#8" to="8074213#2" type="moto_motorcycle"/>
    <trip id="moto174" depart="6960.00" departLane="best" from="277665454#0" to="8074416#0" type="moto_motorcycle"/>
    <trip id="moto175" depart="7000.00" departLane="best" from="-5134912#3" to="-25270811#6" type="moto_motorcycle"/>
    <trip id="moto176" depart="7040.00" departLane="best" from="-8074215#3" to="231661249#3" type="moto_motorcycle"/>
    <trip id="moto177" depart="7080.00" departLane="best" from="-218253720#3" to="8074215#6" type="moto_motorcycle"/>
    <trip id="moto178" depart="7120.00" departLane="best" from="-25584897#3" to="25584897#2" type="moto_motorcycle"/>
    <trip id="moto179" depart="7160.00" departLane="best" from="413718443#1" to="-526422259#1" type="moto_motorcycle"/>
    <trip id="moto180" depart="7200.00" departLane="best" from="10526071#1" to="-38075402#0" type="moto_motorcycle"/>
    <trip id="moto181" depart="7240.00" departLane="best" from="9887598" to="-106531538#7" type="moto_motorcycle"/>
    <trip id="moto182" depart="7280.00" departLane="best" from="-22559297#1" to="484593099#1" type="moto_motorcycle"/>
    <trip id="moto183" depart="7320.00" departLane="best" from="7975388#0" to="122164832#0" type="moto_motorcycle"/>
    <trip id="moto184" depart="7360.00" departLane="best" from="-30426827" to="8074220#0" type="moto_motorcycle"/>
    <trip id="moto185" depart="7400.00" departLane="best" from="-10237438#0" to="8074159#1" type="moto_motorcycle"/>
    <trip id="moto186" depart="7440.00" departLane="best" from="-30426827" to="-483465545#0" type="moto_motorcycle"/>
    <trip id="moto187" depart="7480.00" departLane="best" from="-7975383" to="-7820081#2" type="moto_motorcycle"/>
    <trip id="moto188" depart="7520.00" departLane="best" from="-375862676#4" to="-218253719#3" type="moto_motorcycle"/>
    <trip id="moto189" depart="7560.00" departLane="best" from="39458868#3" to="314533294#0" type="moto_motorcycle"/>
    <trip id="moto190" depart="7600.00" departLane="best" from="431412123#1" to="276159044" type="moto_motorcycle"/>
    <trip id="moto192" depart="7680.00" departLane="best" from="9887589#4" to="-106698930#0" type="moto_motorcycle"/>
    <trip id="moto193" depart="7720.00" departLane="best" from="8074181#3" to="-291313154" type="moto_motorcycle"/>
    <trip id="moto194" depart="7760.00" departLane="best" from="318774677#0" to="319192876#4" type="moto_motorcycle"/>
    <trip id="moto195" depart="7800.00" departLane="best" from="25270811#5" to="25584897#2" type="moto_motorcycle"/>
    <trip id="moto196" depart="7840.00" departLane="best" from="378166624#2" to="8013583#1" type="moto_motorcycle"/>
    <trip id="moto197" depart="7880.00" departLane="best" from="385335098#0" to="-8074204#5" type="moto_motorcycle"/>
    <trip id="moto198" depart="7920.00" departLane="best" from="-218253720#3" to="5140732" type="moto_motorcycle"/>
    <trip id="moto199" depart="7960.00" departLane="best" from="-8074412#2" to="-4314516#4" type="moto_motorcycle"/>
    <trip id="moto200" depart="8000.00" departLane="best" from="291313154" to="-8074201#2" type="moto_motorcycle"/>
    <trip id="moto201" depart="8040.00" departLane="best" from="325528580#3" to="-8074215#3" type="moto_motorcycle"/>
    <trip id="moto202" depart="8080.00" departLane="best" from="10231578#3" to="529421172#0" type="moto_motorcycle"/>
    <trip id="moto203" depart="8120.00" departLane="best" from="290601649#2" to="7975381#1" type="moto_motorcycle"/>
    <trip id="moto204" depart="8160.00" departLane="best" from="8074215#5" to="7975407#2" type="moto_motorcycle"/>
    <trip id="moto205" depart="8200.00" departLane="best" from="-7975407#2" to="-7975388#0" type="moto_motorcycle"/>
    <trip id="moto206" depart="8240.00" departLane="best" from="38075402#0" to="106531547#0" type="moto_motorcycle"/>
    <trip id="moto207" depart="8280.00" departLane="best" from="10529294#2" to="161838918" type="moto_motorcycle"/>
    <trip id="moto208" depart="8320.00" departLane="best" from="326114792#1" to="277671142" type="moto_motorcycle"/>
    <trip id="moto209" depart="8360.00" departLane="best" from="106698930#0" to="103270688#5" type="moto_motorcycle"/>
    <trip id="moto210" depart="8400.00" departLane="best" from="4314516#5" to="-384709617#1" type="moto_motorcycle"/>
    <trip id="moto211" depart="8440.00" departLane="best" from="33364787" to="277671146" type="moto_motorcycle"/>
    <trip id="moto212" depart="8480.00" departLane="best" from="32755484#2" to="-167920423#2" type="moto_motorcycle"/>
    <trip id="moto213" depart="8520.00" departLane="best" from="-10237438#0" to="106531542#1" type="moto_motorcycle"/>
    <trip id="moto214" depart="8560.00" departLane="best" from="-5088355#4" to="-5139607#1" type="moto_motorcycle"/>
    <trip id="moto215" depart="8600.00" departLane="best" from="-10237438#0" to="5140740#0" type="moto_motorcycle"/>
    <trip id="moto216" depart="8640.00" departLane="best" from="38075402#0" to="299910129#2.39" type="moto_motorcycle"/>
    <trip id="moto217" depart="8680.00" departLane="best" from="577566285" to="7823653#4" type="moto_motorcycle"/>
    <trip id="moto218" depart="8720.00" departLane="best" from="-217362175#1" to="8074171#3" type="moto_motorcycle"/>
    <trip id="moto219" depart="8760.00" departLane="best" from="8074204#5" to="8074171#3" type="moto_motorcycle"/>
    <trip id="moto221" depart="8840.00" departLane="best" from="-30426827" to="-8004023#0" type="moto_motorcycle"/>
    <trip id="moto222" depart="8880.00" departLane="best" from="484593099#1" to="290601651#0" type="moto_motorcycle"/>
    <trip id="moto223" depart="8920.00" departLane="best" from="-8074215#5" to="103495995#0" type="moto_motorcycle"/>
    <trip id="moto224" depart="8960.00" departLane="best" from="-167286681#1" to="30424216#0" type="moto_motorcycle"/>
    <trip id="moto225" depart="9000.00" departLane="best" from="-167286681#1" to="7975408#0" type="moto_motorcycle"/>
    <trip id="moto226" depart="9040.00" departLane="best" from="-217362175#1" to="8074174#0" type="moto_motorcycle"/>
    <trip id="moto227" depart="9080.00" departLane="best" from="231661249#2" to="263432785#7.8" type="moto_motorcycle"/>
    <trip id="moto228" depart="9120.00" departLane="best" from="27150093#0" to="68327844#3" type="moto_motorcycle"/>
    <trip id="moto229" depart="9160.00" departLane="best" from="8004023#0" to="25584897#2" type="moto_motorcycle"/>
    <trip id="moto230" depart="9200.00" departLane="best" from="525353018#1" to="387385476#1" type="moto_motorcycle"/>
    <trip id="moto231" depart="9240.00" departLane="best" from="-30426827" to="-25270811#6" type="moto_motorcycle"/>
    <trip id="moto232" depart="9280.00" departLane="best" from="-22559297#1" to="8074220#0" type="moto_motorcycle"/>
    <trip id="moto233" depart="9320.00" departLane="best" from="106698930#0" to="30998338#0" type="moto_motorcycle"/>
    <trip id="moto234" depart="9360.00" departLane="best" from="-207177331#0" to="-375862676#4" type="moto_motorcycle"/>
    <trip id="moto235" depart="9400.00" departLane="best" from="33364787" to="10522174#2" type="moto_motorcycle"/>
    <trip id="moto236" depart="9440.00" departLane="best" from="8074173#6" to="8074199#8" type="moto_motorcycle"/>
    <trip id="moto237" depart="9480.00" departLane="best" from="-8074416#1" to="336013553#2" type="moto_motorcycle"/>
    <trip id="moto238" depart="9520.00" departLane="best" from="9887589#4" to="106531547#0" type="moto_motorcycle"/>
    <trip id="moto239" depart="9560.00" departLane="best" from="577566285" to="5140732" type="moto_motorcycle"/>
    <trip id="moto240" depart="9600.00" departLane="best" from="-217362175#1" to="7975428#1" type="moto_motorcycle"/>
    <trip id="moto241" depart="9640.00" departLane="best" from="-106931173#1" to="161838918" type="moto_motorcycle"/>
    <trip id="moto242" depart="9680.00" departLane="best" from="104365620#1" to="-538699600" type="moto_motorcycle"/>
    <trip id="moto243" depart="9720.00" departLane="best" from="577566285" to="6144590#1" type="moto_motorcycle"/>
    <trip id="moto244" depart="9760.00" departLane="best" from="525353018#1" to="-577566285" type="moto_motorcycle"/>
    <trip id="moto245" depart="9800.00" departLane="best" from="107709364#1" to="10522174#2" type="moto_motorcycle"/>
    <trip id="moto246" depart="9840.00" departLane="best" from="4314516#4" to="25584897#2" type="moto_motorcycle"/>
    <trip id="moto247" depart="9880.00" departLane="best" from="122164832#0" to="10522174#2" type="moto_motorcycle"/>
    <trip id="moto248" depart="9920.00" departLane="best" from="-22559297#1" to="7975434#0" type="moto_motorcycle"/>
    <trip id="moto250" depart="10000.00" departLane="best" from="-5134912#3" to="25584897#2" type="moto_motorcycle"/>
    <trip id="moto251" depart="10040.00" departLane="best" from="-gneE26" to="-10526071#1" type="moto_motorcycle"/>
    <trip id="moto252" depart="10080.00" departLane="best" from="103270688#5" to="-10526071#1" type="moto_motorcycle"/>
    <trip id="moto253" depart="10120.00" departLane="best" from="8074226#0" to="7975409#3" type="moto_motorcycle"/>
    <trip id="moto254" depart="10160.00" departLane="best" from="577566285" to="5083224#3" type="moto_motorcycle"/>
    <trip id="moto255" depart="10200.00" departLane="best" from="107709364#1" to="-10517312#6" type="moto_motorcycle"/>
    <trip id="moto256" depart="10240.00" departLane="best" from="-217362175#1" to="-gneE8" type="moto_motorcycle"/>
    <trip id="moto257" depart="10280.00" departLane="best" from="385335098#1" to="314533296#0" type="moto_motorcycle"/>
    <trip id="moto258" depart="10320.00" departLane="best" from="-8074215#2" to="-217362176#1" type="moto_motorcycle"/>
    <trip id="moto259" depart="10360.00" departLane="best" from="10529294#2" to="68327844#3" type="moto_motorcycle"/>
    <trip id="moto262" depart="10480.00" departLane="best" from="106531541#5" to="375727027#0" type="moto_motorcycle"/>
    <trip id="moto263" depart="10520.00" departLane="best" from="326114792#1" to="-326114792#1" type="moto_motorcycle"/>
    <trip id="moto264" depart="10560.00" departLane="best" from="10522106" to="26691822#2" type="moto_motorcycle"/>
    <trip id="moto265" depart="10600.00" departLane="best" from="-7975383" to="-10522156#7" type="moto_motorcycle"/>
    <trip id="moto266" depart="10640.00" departLane="best" from="483465630" to="5140348" type="moto_motorcycle"/>
    <trip id="moto267" depart="10680.00" departLane="best" from="-207177331#0" to="62089686#3" type="moto_motorcycle"/>
    <trip id="moto268" depart="10720.00" departLane="best" from="-106931173#1" to="9887597" type="moto_motorcycle"/>
    <trip id="moto269" depart="10760.00" departLane="best" from="4314516#4" to="-7975407#1" type="moto_motorcycle"/>
</routes>
