<add>
    <vType id="c" vClass="passenger" speedDev="0.1" carFollowModel="Krauss"/>
    <vType id="e" vClass="emergency" speedDev="0.1" speedFactor="1.2"  carFollowModel="Krauss" guiShape="emergency"/>
    <vType id="t" vClass="truck" speedDev="0.1"/>
    <vType id="b" vClass="bicycle" speedDev="0.2" length="3"/>
    <vType id="p" vClass="pedestrian" speedDev="0.1"/>
    <timedEvent type="SaveTLSSwitchStates" source="0" dest="tls_state.xml"/>
</add>
