<?xml version="1.0" encoding="UTF-8"?>

<!-- generated on 12.03.2019 15:06:34 by Eclipse SUMO netedit Version UNKNOWN
<configuration xmlns:xsi="http://www.w3.org/2001/XMLSchema-instance" xsi:noNamespaceSchemaLocation="http://sumo.dlr.de/xsd/netconvertConfiguration.xsd">

    <input>
        <sumo-net-file value="net.net.xml"/>
    </input>

    <output>
        <output-file value="net.net.xml"/>
    </output>

    <processing>
        <geometry.max-grade.fix value="false"/>
        <offset.disable-normalization value="true"/>
        <lefthand value="false"/>
    </processing>

    <junctions>
        <no-turnarounds value="true"/>
        <junctions.corner-detail value="5"/>
        <junctions.limit-turn-speed value="5.5"/>
        <rectangular-lane-cut value="false"/>
    </junctions>

    <pedestrian>
        <walkingareas value="false"/>
    </pedestrian>

    <visualisation>
        <registry-viewport value="true"/>
    </visualisation>

</configuration>
-->

<routes xmlns:xsi="http://www.w3.org/2001/XMLSchema-instance" xsi:noNamespaceSchemaLocation="http://sumo.dlr.de/xsd/routes_file.xsd">
    <route id="route_0" edges="A3B3 B3C3 C3D3 D3E3" color="blue"/>
    <route id="route_1" edges="A2B2 B2C2 C2D2 D2E2" color="blue"/>
    <route id="route_10" edges="C4C3 C3C2 C2C1 C1C0" color="blue"/>
    <route id="route_11" edges="D3D2 D2D1 D1D0" color="blue"/>
    <route id="route_2" edges="A1B1 B1C1 C1D1 D1E1" color="blue"/>
    <route id="route_3" edges="B0B1 B1B2 B2B3 B3B4" color="blue"/>
    <route id="route_4" edges="C0C1 C1C2 C2C3 C3C4" color="blue"/>
    <route id="route_5" edges="D0D1 D1D2 D2D3 D3D4" color="blue"/>
    <route id="route_6" edges="E3D3 D3C3 C3B3 B3A3" color="blue"/>
    <route id="route_7" edges="E2D2 D2C2 C2B2 B2A2" color="blue"/>
    <route id="route_8" edges="E1D1 D1C1 C1B1 B1A1" color="blue"/>
    <route id="route_9" edges="B4B3 B3B2 B2B1 B1B0" color="blue"/>
</routes>
