<?xml version="1.0" encoding="UTF-8"?>

<!-- generated on 28.05.2019 16:32:24 by Eclipse SUMO netedit Version UNKNOWN
<configuration xmlns:xsi="http://www.w3.org/2001/XMLSchema-instance" xsi:noNamespaceSchemaLocation="http://sumo.dlr.de/xsd/netconvertConfiguration.xsd">

    <input>
        <sumo-net-file value="net.net.xml"/>
    </input>

    <output>
        <output-file value="net.net.xml"/>
    </output>

    <processing>
        <geometry.max-grade.fix value="false"/>
        <offset.disable-normalization value="true"/>
        <lefthand value="false"/>
    </processing>

    <junctions>
        <no-turnarounds value="true"/>
        <junctions.corner-detail value="5"/>
        <junctions.limit-turn-speed value="5.5"/>
        <rectangular-lane-cut value="false"/>
    </junctions>

    <pedestrian>
        <walkingareas value="false"/>
    </pedestrian>

</configuration>
-->

<net version="1.3" junctionCornerDetail="5" limitTurnSpeed="5.50" xmlns:xsi="http://www.w3.org/2001/XMLSchema-instance" xsi:noNamespaceSchemaLocation="http://sumo.dlr.de/xsd/net_file.xsd">

    <location netOffset="0.00,0.00" convBoundary="0.00,0.00,800.00,800.00" origBoundary="0.00,0.00,800.00,800.00" projParameter="!"/>

    <edge id=":A1_0" function="internal">
        <lane id=":A1_0_0" index="0" speed="3.65" length="4.67" shape="0.00,201.60 -1.20,200.80 -1.60,200.00 -1.20,199.20 0.00,198.40"/>
    </edge>
    <edge id=":A2_0" function="internal">
        <lane id=":A2_0_0" index="0" speed="3.65" length="4.67" shape="0.00,401.60 -1.20,400.80 -1.60,400.00 -1.20,399.20 0.00,398.40"/>
    </edge>
    <edge id=":A3_0" function="internal">
        <lane id=":A3_0_0" index="0" speed="3.65" length="4.67" shape="0.00,601.60 -1.20,600.80 -1.60,600.00 -1.20,599.20 0.00,598.40"/>
    </edge>
    <edge id=":B0_0" function="internal">
        <lane id=":B0_0_0" index="0" speed="3.65" length="4.67" shape="198.40,0.00 199.20,-1.20 200.00,-1.60 200.80,-1.20 201.60,0.00"/>
    </edge>
    <edge id=":B1_0" function="internal">
        <lane id=":B1_0_0" index="0" speed="6.51" length="9.03" shape="192.00,213.60 191.65,211.15 190.60,209.40 188.85,208.35 186.40,208.00"/>
    </edge>
    <edge id=":B1_1" function="internal">
        <lane id=":B1_1_0" index="0" speed="13.89" length="27.20" shape="192.00,213.60 192.00,186.40"/>
        <lane id=":B1_1_1" index="1" speed="13.89" length="27.20" shape="195.20,213.60 195.20,186.40"/>
        <lane id=":B1_1_2" index="2" speed="13.89" length="27.20" shape="198.40,213.60 198.40,186.40"/>
    </edge>
    <edge id=":B1_4" function="internal">
        <lane id=":B1_4_0" index="0" speed="10.36" length="7.98" shape="198.40,213.60 199.35,206.95 200.00,205.87"/>
    </edge>
    <edge id=":B1_5" function="internal">
        <lane id=":B1_5_0" index="0" speed="3.65" length="2.34" shape="198.40,213.60 199.20,212.40 200.00,212.00"/>
    </edge>
    <edge id=":B1_24" function="internal">
        <lane id=":B1_24_0" index="0" speed="10.36" length="16.53" shape="200.00,205.87 202.20,202.20 206.95,199.35 213.60,198.40"/>
    </edge>
    <edge id=":B1_25" function="internal">
        <lane id=":B1_25_0" index="0" speed="3.65" length="2.34" shape="200.00,212.00 200.80,212.40 201.60,213.60"/>
    </edge>
    <edge id=":B1_6" function="internal">
        <lane id=":B1_6_0" index="0" speed="6.51" length="9.03" shape="213.60,208.00 211.15,208.35 209.40,209.40 208.35,211.15 208.00,213.60"/>
    </edge>
    <edge id=":B1_7" function="internal">
        <lane id=":B1_7_0" index="0" speed="13.89" length="27.20" shape="213.60,208.00 186.40,208.00"/>
        <lane id=":B1_7_1" index="1" speed="13.89" length="27.20" shape="213.60,204.80 186.40,204.80"/>
        <lane id=":B1_7_2" index="2" speed="13.89" length="27.20" shape="213.60,201.60 186.40,201.60"/>
    </edge>
    <edge id=":B1_10" function="internal">
        <lane id=":B1_10_0" index="0" speed="10.36" length="7.98" shape="213.60,201.60 206.95,200.65 205.87,200.00"/>
    </edge>
    <edge id=":B1_11" function="internal">
        <lane id=":B1_11_0" index="0" speed="3.65" length="2.34" shape="213.60,201.60 212.40,200.80 212.00,200.00"/>
    </edge>
    <edge id=":B1_26" function="internal">
        <lane id=":B1_26_0" index="0" speed="10.36" length="16.53" shape="205.87,200.00 202.20,197.80 199.35,193.05 198.40,186.40"/>
    </edge>
    <edge id=":B1_27" function="internal">
        <lane id=":B1_27_0" index="0" speed="3.65" length="2.34" shape="212.00,200.00 212.40,199.20 213.60,198.40"/>
    </edge>
    <edge id=":B1_12" function="internal">
        <lane id=":B1_12_0" index="0" speed="6.51" length="9.03" shape="208.00,186.40 208.35,188.85 209.40,190.60 211.15,191.65 213.60,192.00"/>
    </edge>
    <edge id=":B1_13" function="internal">
        <lane id=":B1_13_0" index="0" speed="13.89" length="27.20" shape="208.00,186.40 208.00,213.60"/>
        <lane id=":B1_13_1" index="1" speed="13.89" length="27.20" shape="204.80,186.40 204.80,213.60"/>
        <lane id=":B1_13_2" index="2" speed="13.89" length="27.20" shape="201.60,186.40 201.60,213.60"/>
    </edge>
    <edge id=":B1_16" function="internal">
        <lane id=":B1_16_0" index="0" speed="10.36" length="7.98" shape="201.60,186.40 200.65,193.05 200.00,194.13"/>
    </edge>
    <edge id=":B1_17" function="internal">
        <lane id=":B1_17_0" index="0" speed="3.65" length="2.34" shape="201.60,186.40 200.80,187.60 200.00,188.00"/>
    </edge>
    <edge id=":B1_28" function="internal">
        <lane id=":B1_28_0" index="0" speed="10.36" length="16.53" shape="200.00,194.13 197.80,197.80 193.05,200.65 186.40,201.60"/>
    </edge>
    <edge id=":B1_29" function="internal">
        <lane id=":B1_29_0" index="0" speed="3.65" length="2.34" shape="200.00,188.00 199.20,187.60 198.40,186.40"/>
    </edge>
    <edge id=":B1_18" function="internal">
        <lane id=":B1_18_0" index="0" speed="6.51" length="9.03" shape="186.40,192.00 188.85,191.65 190.60,190.60 191.65,188.85 192.00,186.40"/>
    </edge>
    <edge id=":B1_19" function="internal">
        <lane id=":B1_19_0" index="0" speed="13.89" length="27.20" shape="186.40,192.00 213.60,192.00"/>
        <lane id=":B1_19_1" index="1" speed="13.89" length="27.20" shape="186.40,195.20 213.60,195.20"/>
        <lane id=":B1_19_2" index="2" speed="13.89" length="27.20" shape="186.40,198.40 213.60,198.40"/>
    </edge>
    <edge id=":B1_22" function="internal">
        <lane id=":B1_22_0" index="0" speed="10.36" length="7.98" shape="186.40,198.40 193.05,199.35 194.13,200.00"/>
    </edge>
    <edge id=":B1_23" function="internal">
        <lane id=":B1_23_0" index="0" speed="3.65" length="2.34" shape="186.40,198.40 187.60,199.20 188.00,200.00"/>
    </edge>
    <edge id=":B1_30" function="internal">
        <lane id=":B1_30_0" index="0" speed="10.36" length="16.53" shape="194.13,200.00 197.80,202.20 200.65,206.95 201.60,213.60"/>
    </edge>
    <edge id=":B1_31" function="internal">
        <lane id=":B1_31_0" index="0" speed="3.65" length="2.34" shape="188.00,200.00 187.60,200.80 186.40,201.60"/>
    </edge>
    <edge id=":B2_0" function="internal">
        <lane id=":B2_0_0" index="0" speed="6.51" length="9.03" shape="192.00,413.60 191.65,411.15 190.60,409.40 188.85,408.35 186.40,408.00"/>
    </edge>
    <edge id=":B2_1" function="internal">
        <lane id=":B2_1_0" index="0" speed="13.89" length="27.20" shape="192.00,413.60 192.00,386.40"/>
        <lane id=":B2_1_1" index="1" speed="13.89" length="27.20" shape="195.20,413.60 195.20,386.40"/>
        <lane id=":B2_1_2" index="2" speed="13.89" length="27.20" shape="198.40,413.60 198.40,386.40"/>
    </edge>
    <edge id=":B2_4" function="internal">
        <lane id=":B2_4_0" index="0" speed="10.36" length="7.98" shape="198.40,413.60 199.35,406.95 200.00,405.87"/>
    </edge>
    <edge id=":B2_5" function="internal">
        <lane id=":B2_5_0" index="0" speed="3.65" length="2.34" shape="198.40,413.60 199.20,412.40 200.00,412.00"/>
    </edge>
    <edge id=":B2_24" function="internal">
        <lane id=":B2_24_0" index="0" speed="10.36" length="16.53" shape="200.00,405.87 202.20,402.20 206.95,399.35 213.60,398.40"/>
    </edge>
    <edge id=":B2_25" function="internal">
        <lane id=":B2_25_0" index="0" speed="3.65" length="2.34" shape="200.00,412.00 200.80,412.40 201.60,413.60"/>
    </edge>
    <edge id=":B2_6" function="internal">
        <lane id=":B2_6_0" index="0" speed="6.51" length="9.03" shape="213.60,408.00 211.15,408.35 209.40,409.40 208.35,411.15 208.00,413.60"/>
    </edge>
    <edge id=":B2_7" function="internal">
        <lane id=":B2_7_0" index="0" speed="13.89" length="27.20" shape="213.60,408.00 186.40,408.00"/>
        <lane id=":B2_7_1" index="1" speed="13.89" length="27.20" shape="213.60,404.80 186.40,404.80"/>
        <lane id=":B2_7_2" index="2" speed="13.89" length="27.20" shape="213.60,401.60 186.40,401.60"/>
    </edge>
    <edge id=":B2_10" function="internal">
        <lane id=":B2_10_0" index="0" speed="10.36" length="7.98" shape="213.60,401.60 206.95,400.65 205.87,400.00"/>
    </edge>
    <edge id=":B2_11" function="internal">
        <lane id=":B2_11_0" index="0" speed="3.65" length="2.34" shape="213.60,401.60 212.40,400.80 212.00,400.00"/>
    </edge>
    <edge id=":B2_26" function="internal">
        <lane id=":B2_26_0" index="0" speed="10.36" length="16.53" shape="205.87,400.00 202.20,397.80 199.35,393.05 198.40,386.40"/>
    </edge>
    <edge id=":B2_27" function="internal">
        <lane id=":B2_27_0" index="0" speed="3.65" length="2.34" shape="212.00,400.00 212.40,399.20 213.60,398.40"/>
    </edge>
    <edge id=":B2_12" function="internal">
        <lane id=":B2_12_0" index="0" speed="6.51" length="9.03" shape="208.00,386.40 208.35,388.85 209.40,390.60 211.15,391.65 213.60,392.00"/>
    </edge>
    <edge id=":B2_13" function="internal">
        <lane id=":B2_13_0" index="0" speed="13.89" length="27.20" shape="208.00,386.40 208.00,413.60"/>
        <lane id=":B2_13_1" index="1" speed="13.89" length="27.20" shape="204.80,386.40 204.80,413.60"/>
        <lane id=":B2_13_2" index="2" speed="13.89" length="27.20" shape="201.60,386.40 201.60,413.60"/>
    </edge>
    <edge id=":B2_16" function="internal">
        <lane id=":B2_16_0" index="0" speed="10.36" length="7.98" shape="201.60,386.40 200.65,393.05 200.00,394.13"/>
    </edge>
    <edge id=":B2_17" function="internal">
        <lane id=":B2_17_0" index="0" speed="3.65" length="2.34" shape="201.60,386.40 200.80,387.60 200.00,388.00"/>
    </edge>
    <edge id=":B2_28" function="internal">
        <lane id=":B2_28_0" index="0" speed="10.36" length="16.53" shape="200.00,394.13 197.80,397.80 193.05,400.65 186.40,401.60"/>
    </edge>
    <edge id=":B2_29" function="internal">
        <lane id=":B2_29_0" index="0" speed="3.65" length="2.34" shape="200.00,388.00 199.20,387.60 198.40,386.40"/>
    </edge>
    <edge id=":B2_18" function="internal">
        <lane id=":B2_18_0" index="0" speed="6.51" length="9.03" shape="186.40,392.00 188.85,391.65 190.60,390.60 191.65,388.85 192.00,386.40"/>
    </edge>
    <edge id=":B2_19" function="internal">
        <lane id=":B2_19_0" index="0" speed="13.89" length="27.20" shape="186.40,392.00 213.60,392.00"/>
        <lane id=":B2_19_1" index="1" speed="13.89" length="27.20" shape="186.40,395.20 213.60,395.20"/>
        <lane id=":B2_19_2" index="2" speed="13.89" length="27.20" shape="186.40,398.40 213.60,398.40"/>
    </edge>
    <edge id=":B2_22" function="internal">
        <lane id=":B2_22_0" index="0" speed="10.36" length="7.98" shape="186.40,398.40 193.05,399.35 194.13,400.00"/>
    </edge>
    <edge id=":B2_23" function="internal">
        <lane id=":B2_23_0" index="0" speed="3.65" length="2.34" shape="186.40,398.40 187.60,399.20 188.00,400.00"/>
    </edge>
    <edge id=":B2_30" function="internal">
        <lane id=":B2_30_0" index="0" speed="10.36" length="16.53" shape="194.13,400.00 197.80,402.20 200.65,406.95 201.60,413.60"/>
    </edge>
    <edge id=":B2_31" function="internal">
        <lane id=":B2_31_0" index="0" speed="3.65" length="2.34" shape="188.00,400.00 187.60,400.80 186.40,401.60"/>
    </edge>
    <edge id=":B3_0" function="internal">
        <lane id=":B3_0_0" index="0" speed="6.51" length="9.03" shape="192.00,613.60 191.65,611.15 190.60,609.40 188.85,608.35 186.40,608.00"/>
    </edge>
    <edge id=":B3_1" function="internal">
        <lane id=":B3_1_0" index="0" speed="13.89" length="27.20" shape="192.00,613.60 192.00,586.40"/>
        <lane id=":B3_1_1" index="1" speed="13.89" length="27.20" shape="195.20,613.60 195.20,586.40"/>
        <lane id=":B3_1_2" index="2" speed="13.89" length="27.20" shape="198.40,613.60 198.40,586.40"/>
    </edge>
    <edge id=":B3_4" function="internal">
        <lane id=":B3_4_0" index="0" speed="10.36" length="7.98" shape="198.40,613.60 199.35,606.95 200.00,605.87"/>
    </edge>
    <edge id=":B3_5" function="internal">
        <lane id=":B3_5_0" index="0" speed="3.65" length="2.34" shape="198.40,613.60 199.20,612.40 200.00,612.00"/>
    </edge>
    <edge id=":B3_24" function="internal">
        <lane id=":B3_24_0" index="0" speed="10.36" length="16.53" shape="200.00,605.87 202.20,602.20 206.95,599.35 213.60,598.40"/>
    </edge>
    <edge id=":B3_25" function="internal">
        <lane id=":B3_25_0" index="0" speed="3.65" length="2.34" shape="200.00,612.00 200.80,612.40 201.60,613.60"/>
    </edge>
    <edge id=":B3_6" function="internal">
        <lane id=":B3_6_0" index="0" speed="6.51" length="9.03" shape="213.60,608.00 211.15,608.35 209.40,609.40 208.35,611.15 208.00,613.60"/>
    </edge>
    <edge id=":B3_7" function="internal">
        <lane id=":B3_7_0" index="0" speed="13.89" length="27.20" shape="213.60,608.00 186.40,608.00"/>
        <lane id=":B3_7_1" index="1" speed="13.89" length="27.20" shape="213.60,604.80 186.40,604.80"/>
        <lane id=":B3_7_2" index="2" speed="13.89" length="27.20" shape="213.60,601.60 186.40,601.60"/>
    </edge>
    <edge id=":B3_10" function="internal">
        <lane id=":B3_10_0" index="0" speed="10.36" length="7.98" shape="213.60,601.60 206.95,600.65 205.87,600.00"/>
    </edge>
    <edge id=":B3_11" function="internal">
        <lane id=":B3_11_0" index="0" speed="3.65" length="2.34" shape="213.60,601.60 212.40,600.80 212.00,600.00"/>
    </edge>
    <edge id=":B3_26" function="internal">
        <lane id=":B3_26_0" index="0" speed="10.36" length="16.53" shape="205.87,600.00 202.20,597.80 199.35,593.05 198.40,586.40"/>
    </edge>
    <edge id=":B3_27" function="internal">
        <lane id=":B3_27_0" index="0" speed="3.65" length="2.34" shape="212.00,600.00 212.40,599.20 213.60,598.40"/>
    </edge>
    <edge id=":B3_12" function="internal">
        <lane id=":B3_12_0" index="0" speed="6.51" length="9.03" shape="208.00,586.40 208.35,588.85 209.40,590.60 211.15,591.65 213.60,592.00"/>
    </edge>
    <edge id=":B3_13" function="internal">
        <lane id=":B3_13_0" index="0" speed="13.89" length="27.20" shape="208.00,586.40 208.00,613.60"/>
        <lane id=":B3_13_1" index="1" speed="13.89" length="27.20" shape="204.80,586.40 204.80,613.60"/>
        <lane id=":B3_13_2" index="2" speed="13.89" length="27.20" shape="201.60,586.40 201.60,613.60"/>
    </edge>
    <edge id=":B3_16" function="internal">
        <lane id=":B3_16_0" index="0" speed="10.36" length="7.98" shape="201.60,586.40 200.65,593.05 200.00,594.13"/>
    </edge>
    <edge id=":B3_17" function="internal">
        <lane id=":B3_17_0" index="0" speed="3.65" length="2.34" shape="201.60,586.40 200.80,587.60 200.00,588.00"/>
    </edge>
    <edge id=":B3_28" function="internal">
        <lane id=":B3_28_0" index="0" speed="10.36" length="16.53" shape="200.00,594.13 197.80,597.80 193.05,600.65 186.40,601.60"/>
    </edge>
    <edge id=":B3_29" function="internal">
        <lane id=":B3_29_0" index="0" speed="3.65" length="2.34" shape="200.00,588.00 199.20,587.60 198.40,586.40"/>
    </edge>
    <edge id=":B3_18" function="internal">
        <lane id=":B3_18_0" index="0" speed="6.51" length="9.03" shape="186.40,592.00 188.85,591.65 190.60,590.60 191.65,588.85 192.00,586.40"/>
    </edge>
    <edge id=":B3_19" function="internal">
        <lane id=":B3_19_0" index="0" speed="13.89" length="27.20" shape="186.40,592.00 213.60,592.00"/>
        <lane id=":B3_19_1" index="1" speed="13.89" length="27.20" shape="186.40,595.20 213.60,595.20"/>
        <lane id=":B3_19_2" index="2" speed="13.89" length="27.20" shape="186.40,598.40 213.60,598.40"/>
    </edge>
    <edge id=":B3_22" function="internal">
        <lane id=":B3_22_0" index="0" speed="10.36" length="7.98" shape="186.40,598.40 193.05,599.35 194.13,600.00"/>
    </edge>
    <edge id=":B3_23" function="internal">
        <lane id=":B3_23_0" index="0" speed="3.65" length="2.34" shape="186.40,598.40 187.60,599.20 188.00,600.00"/>
    </edge>
    <edge id=":B3_30" function="internal">
        <lane id=":B3_30_0" index="0" speed="10.36" length="16.53" shape="194.13,600.00 197.80,602.20 200.65,606.95 201.60,613.60"/>
    </edge>
    <edge id=":B3_31" function="internal">
        <lane id=":B3_31_0" index="0" speed="3.65" length="2.34" shape="188.00,600.00 187.60,600.80 186.40,601.60"/>
    </edge>
    <edge id=":B4_0" function="internal">
        <lane id=":B4_0_0" index="0" speed="3.65" length="4.67" shape="201.60,800.00 200.80,801.20 200.00,801.60 199.20,801.20 198.40,800.00"/>
    </edge>
    <edge id=":C0_0" function="internal">
        <lane id=":C0_0_0" index="0" speed="3.65" length="4.67" shape="398.40,0.00 399.20,-1.20 400.00,-1.60 400.80,-1.20 401.60,0.00"/>
    </edge>
    <edge id=":C1_0" function="internal">
        <lane id=":C1_0_0" index="0" speed="6.51" length="9.03" shape="392.00,213.60 391.65,211.15 390.60,209.40 388.85,208.35 386.40,208.00"/>
    </edge>
    <edge id=":C1_1" function="internal">
        <lane id=":C1_1_0" index="0" speed="13.89" length="27.20" shape="392.00,213.60 392.00,186.40"/>
        <lane id=":C1_1_1" index="1" speed="13.89" length="27.20" shape="395.20,213.60 395.20,186.40"/>
        <lane id=":C1_1_2" index="2" speed="13.89" length="27.20" shape="398.40,213.60 398.40,186.40"/>
    </edge>
    <edge id=":C1_4" function="internal">
        <lane id=":C1_4_0" index="0" speed="10.36" length="7.98" shape="398.40,213.60 399.35,206.95 400.00,205.87"/>
    </edge>
    <edge id=":C1_5" function="internal">
        <lane id=":C1_5_0" index="0" speed="3.65" length="2.34" shape="398.40,213.60 399.20,212.40 400.00,212.00"/>
    </edge>
    <edge id=":C1_24" function="internal">
        <lane id=":C1_24_0" index="0" speed="10.36" length="16.53" shape="400.00,205.87 402.20,202.20 406.95,199.35 413.60,198.40"/>
    </edge>
    <edge id=":C1_25" function="internal">
        <lane id=":C1_25_0" index="0" speed="3.65" length="2.34" shape="400.00,212.00 400.80,212.40 401.60,213.60"/>
    </edge>
    <edge id=":C1_6" function="internal">
        <lane id=":C1_6_0" index="0" speed="6.51" length="9.03" shape="413.60,208.00 411.15,208.35 409.40,209.40 408.35,211.15 408.00,213.60"/>
    </edge>
    <edge id=":C1_7" function="internal">
        <lane id=":C1_7_0" index="0" speed="13.89" length="27.20" shape="413.60,208.00 386.40,208.00"/>
        <lane id=":C1_7_1" index="1" speed="13.89" length="27.20" shape="413.60,204.80 386.40,204.80"/>
        <lane id=":C1_7_2" index="2" speed="13.89" length="27.20" shape="413.60,201.60 386.40,201.60"/>
    </edge>
    <edge id=":C1_10" function="internal">
        <lane id=":C1_10_0" index="0" speed="10.36" length="7.98" shape="413.60,201.60 406.95,200.65 405.87,200.00"/>
    </edge>
    <edge id=":C1_11" function="internal">
        <lane id=":C1_11_0" index="0" speed="3.65" length="2.34" shape="413.60,201.60 412.40,200.80 412.00,200.00"/>
    </edge>
    <edge id=":C1_26" function="internal">
        <lane id=":C1_26_0" index="0" speed="10.36" length="16.53" shape="405.87,200.00 402.20,197.80 399.35,193.05 398.40,186.40"/>
    </edge>
    <edge id=":C1_27" function="internal">
        <lane id=":C1_27_0" index="0" speed="3.65" length="2.34" shape="412.00,200.00 412.40,199.20 413.60,198.40"/>
    </edge>
    <edge id=":C1_12" function="internal">
        <lane id=":C1_12_0" index="0" speed="6.51" length="9.03" shape="408.00,186.40 408.35,188.85 409.40,190.60 411.15,191.65 413.60,192.00"/>
    </edge>
    <edge id=":C1_13" function="internal">
        <lane id=":C1_13_0" index="0" speed="13.89" length="27.20" shape="408.00,186.40 408.00,213.60"/>
        <lane id=":C1_13_1" index="1" speed="13.89" length="27.20" shape="404.80,186.40 404.80,213.60"/>
        <lane id=":C1_13_2" index="2" speed="13.89" length="27.20" shape="401.60,186.40 401.60,213.60"/>
    </edge>
    <edge id=":C1_16" function="internal">
        <lane id=":C1_16_0" index="0" speed="10.36" length="7.98" shape="401.60,186.40 400.65,193.05 400.00,194.13"/>
    </edge>
    <edge id=":C1_17" function="internal">
        <lane id=":C1_17_0" index="0" speed="3.65" length="2.34" shape="401.60,186.40 400.80,187.60 400.00,188.00"/>
    </edge>
    <edge id=":C1_28" function="internal">
        <lane id=":C1_28_0" index="0" speed="10.36" length="16.53" shape="400.00,194.13 397.80,197.80 393.05,200.65 386.40,201.60"/>
    </edge>
    <edge id=":C1_29" function="internal">
        <lane id=":C1_29_0" index="0" speed="3.65" length="2.34" shape="400.00,188.00 399.20,187.60 398.40,186.40"/>
    </edge>
    <edge id=":C1_18" function="internal">
        <lane id=":C1_18_0" index="0" speed="6.51" length="9.03" shape="386.40,192.00 388.85,191.65 390.60,190.60 391.65,188.85 392.00,186.40"/>
    </edge>
    <edge id=":C1_19" function="internal">
        <lane id=":C1_19_0" index="0" speed="13.89" length="27.20" shape="386.40,192.00 413.60,192.00"/>
        <lane id=":C1_19_1" index="1" speed="13.89" length="27.20" shape="386.40,195.20 413.60,195.20"/>
        <lane id=":C1_19_2" index="2" speed="13.89" length="27.20" shape="386.40,198.40 413.60,198.40"/>
    </edge>
    <edge id=":C1_22" function="internal">
        <lane id=":C1_22_0" index="0" speed="10.36" length="7.98" shape="386.40,198.40 393.05,199.35 394.13,200.00"/>
    </edge>
    <edge id=":C1_23" function="internal">
        <lane id=":C1_23_0" index="0" speed="3.65" length="2.34" shape="386.40,198.40 387.60,199.20 388.00,200.00"/>
    </edge>
    <edge id=":C1_30" function="internal">
        <lane id=":C1_30_0" index="0" speed="10.36" length="16.53" shape="394.13,200.00 397.80,202.20 400.65,206.95 401.60,213.60"/>
    </edge>
    <edge id=":C1_31" function="internal">
        <lane id=":C1_31_0" index="0" speed="3.65" length="2.34" shape="388.00,200.00 387.60,200.80 386.40,201.60"/>
    </edge>
    <edge id=":C2_0" function="internal">
        <lane id=":C2_0_0" index="0" speed="6.51" length="9.03" shape="392.00,413.60 391.65,411.15 390.60,409.40 388.85,408.35 386.40,408.00"/>
    </edge>
    <edge id=":C2_1" function="internal">
        <lane id=":C2_1_0" index="0" speed="13.89" length="27.20" shape="392.00,413.60 392.00,386.40"/>
        <lane id=":C2_1_1" index="1" speed="13.89" length="27.20" shape="395.20,413.60 395.20,386.40"/>
        <lane id=":C2_1_2" index="2" speed="13.89" length="27.20" shape="398.40,413.60 398.40,386.40"/>
    </edge>
    <edge id=":C2_4" function="internal">
        <lane id=":C2_4_0" index="0" speed="10.36" length="7.98" shape="398.40,413.60 399.35,406.95 400.00,405.87"/>
    </edge>
    <edge id=":C2_5" function="internal">
        <lane id=":C2_5_0" index="0" speed="3.65" length="2.34" shape="398.40,413.60 399.20,412.40 400.00,412.00"/>
    </edge>
    <edge id=":C2_24" function="internal">
        <lane id=":C2_24_0" index="0" speed="10.36" length="16.53" shape="400.00,405.87 402.20,402.20 406.95,399.35 413.60,398.40"/>
    </edge>
    <edge id=":C2_25" function="internal">
        <lane id=":C2_25_0" index="0" speed="3.65" length="2.34" shape="400.00,412.00 400.80,412.40 401.60,413.60"/>
    </edge>
    <edge id=":C2_6" function="internal">
        <lane id=":C2_6_0" index="0" speed="6.51" length="9.03" shape="413.60,408.00 411.15,408.35 409.40,409.40 408.35,411.15 408.00,413.60"/>
    </edge>
    <edge id=":C2_7" function="internal">
        <lane id=":C2_7_0" index="0" speed="13.89" length="27.20" shape="413.60,408.00 386.40,408.00"/>
        <lane id=":C2_7_1" index="1" speed="13.89" length="27.20" shape="413.60,404.80 386.40,404.80"/>
        <lane id=":C2_7_2" index="2" speed="13.89" length="27.20" shape="413.60,401.60 386.40,401.60"/>
    </edge>
    <edge id=":C2_10" function="internal">
        <lane id=":C2_10_0" index="0" speed="10.36" length="7.98" shape="413.60,401.60 406.95,400.65 405.87,400.00"/>
    </edge>
    <edge id=":C2_11" function="internal">
        <lane id=":C2_11_0" index="0" speed="3.65" length="2.34" shape="413.60,401.60 412.40,400.80 412.00,400.00"/>
    </edge>
    <edge id=":C2_26" function="internal">
        <lane id=":C2_26_0" index="0" speed="10.36" length="16.53" shape="405.87,400.00 402.20,397.80 399.35,393.05 398.40,386.40"/>
    </edge>
    <edge id=":C2_27" function="internal">
        <lane id=":C2_27_0" index="0" speed="3.65" length="2.34" shape="412.00,400.00 412.40,399.20 413.60,398.40"/>
    </edge>
    <edge id=":C2_12" function="internal">
        <lane id=":C2_12_0" index="0" speed="6.51" length="9.03" shape="408.00,386.40 408.35,388.85 409.40,390.60 411.15,391.65 413.60,392.00"/>
    </edge>
    <edge id=":C2_13" function="internal">
        <lane id=":C2_13_0" index="0" speed="13.89" length="27.20" shape="408.00,386.40 408.00,413.60"/>
        <lane id=":C2_13_1" index="1" speed="13.89" length="27.20" shape="404.80,386.40 404.80,413.60"/>
        <lane id=":C2_13_2" index="2" speed="13.89" length="27.20" shape="401.60,386.40 401.60,413.60"/>
    </edge>
    <edge id=":C2_16" function="internal">
        <lane id=":C2_16_0" index="0" speed="10.36" length="7.98" shape="401.60,386.40 400.65,393.05 400.00,394.13"/>
    </edge>
    <edge id=":C2_17" function="internal">
        <lane id=":C2_17_0" index="0" speed="3.65" length="2.34" shape="401.60,386.40 400.80,387.60 400.00,388.00"/>
    </edge>
    <edge id=":C2_28" function="internal">
        <lane id=":C2_28_0" index="0" speed="10.36" length="16.53" shape="400.00,394.13 397.80,397.80 393.05,400.65 386.40,401.60"/>
    </edge>
    <edge id=":C2_29" function="internal">
        <lane id=":C2_29_0" index="0" speed="3.65" length="2.34" shape="400.00,388.00 399.20,387.60 398.40,386.40"/>
    </edge>
    <edge id=":C2_18" function="internal">
        <lane id=":C2_18_0" index="0" speed="6.51" length="9.03" shape="386.40,392.00 388.85,391.65 390.60,390.60 391.65,388.85 392.00,386.40"/>
    </edge>
    <edge id=":C2_19" function="internal">
        <lane id=":C2_19_0" index="0" speed="13.89" length="27.20" shape="386.40,392.00 413.60,392.00"/>
        <lane id=":C2_19_1" index="1" speed="13.89" length="27.20" shape="386.40,395.20 413.60,395.20"/>
        <lane id=":C2_19_2" index="2" speed="13.89" length="27.20" shape="386.40,398.40 413.60,398.40"/>
    </edge>
    <edge id=":C2_22" function="internal">
        <lane id=":C2_22_0" index="0" speed="10.36" length="7.98" shape="386.40,398.40 393.05,399.35 394.13,400.00"/>
    </edge>
    <edge id=":C2_23" function="internal">
        <lane id=":C2_23_0" index="0" speed="3.65" length="2.34" shape="386.40,398.40 387.60,399.20 388.00,400.00"/>
    </edge>
    <edge id=":C2_30" function="internal">
        <lane id=":C2_30_0" index="0" speed="10.36" length="16.53" shape="394.13,400.00 397.80,402.20 400.65,406.95 401.60,413.60"/>
    </edge>
    <edge id=":C2_31" function="internal">
        <lane id=":C2_31_0" index="0" speed="3.65" length="2.34" shape="388.00,400.00 387.60,400.80 386.40,401.60"/>
    </edge>
    <edge id=":C3_0" function="internal">
        <lane id=":C3_0_0" index="0" speed="6.51" length="9.03" shape="392.00,613.60 391.65,611.15 390.60,609.40 388.85,608.35 386.40,608.00"/>
    </edge>
    <edge id=":C3_1" function="internal">
        <lane id=":C3_1_0" index="0" speed="13.89" length="27.20" shape="392.00,613.60 392.00,586.40"/>
        <lane id=":C3_1_1" index="1" speed="13.89" length="27.20" shape="395.20,613.60 395.20,586.40"/>
        <lane id=":C3_1_2" index="2" speed="13.89" length="27.20" shape="398.40,613.60 398.40,586.40"/>
    </edge>
    <edge id=":C3_4" function="internal">
        <lane id=":C3_4_0" index="0" speed="10.36" length="7.98" shape="398.40,613.60 399.35,606.95 400.00,605.87"/>
    </edge>
    <edge id=":C3_5" function="internal">
        <lane id=":C3_5_0" index="0" speed="3.65" length="2.34" shape="398.40,613.60 399.20,612.40 400.00,612.00"/>
    </edge>
    <edge id=":C3_24" function="internal">
        <lane id=":C3_24_0" index="0" speed="10.36" length="16.53" shape="400.00,605.87 402.20,602.20 406.95,599.35 413.60,598.40"/>
    </edge>
    <edge id=":C3_25" function="internal">
        <lane id=":C3_25_0" index="0" speed="3.65" length="2.34" shape="400.00,612.00 400.80,612.40 401.60,613.60"/>
    </edge>
    <edge id=":C3_6" function="internal">
        <lane id=":C3_6_0" index="0" speed="6.51" length="9.03" shape="413.60,608.00 411.15,608.35 409.40,609.40 408.35,611.15 408.00,613.60"/>
    </edge>
    <edge id=":C3_7" function="internal">
        <lane id=":C3_7_0" index="0" speed="13.89" length="27.20" shape="413.60,608.00 386.40,608.00"/>
        <lane id=":C3_7_1" index="1" speed="13.89" length="27.20" shape="413.60,604.80 386.40,604.80"/>
        <lane id=":C3_7_2" index="2" speed="13.89" length="27.20" shape="413.60,601.60 386.40,601.60"/>
    </edge>
    <edge id=":C3_10" function="internal">
        <lane id=":C3_10_0" index="0" speed="10.36" length="7.98" shape="413.60,601.60 406.95,600.65 405.87,600.00"/>
    </edge>
    <edge id=":C3_11" function="internal">
        <lane id=":C3_11_0" index="0" speed="3.65" length="2.34" shape="413.60,601.60 412.40,600.80 412.00,600.00"/>
    </edge>