<?xml version="1.0" encoding="UTF-8"?>

<!-- generated on 26.01.2018 13:07:39 by SUMO gui Version v0_32_0+0229-bdedb7425e
<configuration xmlns:xsi="http://www.w3.org/2001/XMLSchema-instance" xsi:noNamespaceSchemaLocation="http://sumo.dlr.de/xsd/sumoConfiguration.xsd">

    <input>
        <net-file value="net2.net.xml"/>
        <route-files value="input_routes.rou.xml"/>
    </input>

    <output>
        <lanechange-output value="true"/>
    </output>

    <processing>
        <lateral-resolution value="0.64"/>
    </processing>

    <bluelight_device>
        <device.bluelight.explicit value="rescue"/>
    </bluelight_device>

</configuration>
-->

<lanechanges>
    <change id="rescue" type="rescue" time="49.00" from="SC_1" to="SC_0" dir="-1" speed="2.62" pos="75.95" reason="speedGain" leaderGap="None" leaderSecureGap="None" followerGap="None" followerSecureGap="None" origLeaderGap="2.50" origLeaderSecureGap="2.62" latGap="None"/>
</lanechanges>
